<?xml version="1.0" encoding="UTF-8"?>
<!-- generated on 11/25/15 20:43:24 by SUMO netconvert Version 0.19.0
<?xml version="1.0" encoding="UTF-8"?>

<configuration xmlns:xsi="http://www.w3.org/2001/XMLSchema-instance" xsi:noNamespaceSchemaLocation="http://sumo-sim.org/xsd/netconvertConfiguration.xsd">

    <input>
        <node-files value="matrix.nod.xml"/>
        <edge-files value="matrix.edg.xml"/>
        <connection-files value="matrix.con.xml"/>
        <tllogic-files value="matrix.tll.xml"/>
    </input>

    <output>
        <output-file value="matrix.net.xml"/>
    </output>

    <report>
        <log value="matrix.net.log"/>
    </report>

</configuration>
-->
<net version="0.13" xmlns:xsi="http://www.w3.org/2001/XMLSchema-instance" xsi:noNamespaceSchemaLocation="http://sumo-sim.org/xsd/net_file.xsd">
    <location netOffset="-50.00,-50.00" convBoundary="0.00,0.00,1200.00,1800.00" origBoundary="0.00,0.00,1600.00,2200.00" projParameter="!"/>
    <edge id=":0/0_0" function="internal">
        <lane id=":0/0_0_0" index="0" speed="20.00" length="15.97" shape="-4.95,6.55 -4.23,2.96 -2.08,0.40 1.52,-1.14 6.55,-1.65"/>
    </edge>
    <edge id=":0/0_1" function="internal">
        <lane id=":0/0_1_0" index="0" speed="20.00" length="5.52" shape="6.55,4.95 4.41,5.05 2.87,5.35 1.96,5.85 1.65,6.55"/>
    </edge>
    <edge id=":0/2_0" function="internal">
        <lane id=":0/2_0_0" index="0" speed="20.00" length="21.23" shape="8.05,604.95 3.81,603.93 0.77,600.88 -1.04,595.78 -1.65,588.65"/>
    </edge>
    <edge id=":0/2_1" function="internal">
        <lane id=":0/2_1_0" index="0" speed="20.00" length="7.85" shape="4.95,588.65 5.14,591.45 5.72,593.45 6.69,594.65 8.05,595.05"/>
    </edge>
    <edge id=":0/4_0" function="internal">
        <lane id=":0/4_0_0" index="0" speed="20.00" length="20.97" shape="-4.95,1208.05 -4.14,1202.36 -1.70,1198.30 2.36,1195.86 8.05,1195.05"/>
    </edge>
    <edge id=":0/4_1" function="internal">
        <lane id=":0/4_1_0" index="0" speed="20.00" length="7.85" shape="8.05,1204.95 5.25,1205.14 3.25,1205.73 2.05,1206.69 1.65,1208.05"/>
    </edge>
    <edge id=":0/6_0" function="internal">
        <lane id=":0/6_0_0" index="0" speed="20.00" length="15.97" shape="6.55,1804.95 2.96,1804.23 0.40,1802.08 -1.14,1798.48 -1.65,1793.45"/>
    </edge>
    <edge id=":0/6_1" function="internal">
        <lane id=":0/6_1_0" index="0" speed="20.00" length="5.52" shape="4.95,1793.45 5.05,1795.59 5.35,1797.13 5.85,1798.04 6.55,1798.35"/>
    </edge>
    <edge id=":2/0_0" function="internal">
        <lane id=":2/0_0_0" index="0" speed="20.00" length="5.00" shape="595.05,8.05 594.86,6.69 594.27,5.73 593.31,5.14 591.95,4.95"/>
    </edge>
    <edge id=":2/0_1" function="internal">
        <lane id=":2/0_1_0" index="0" speed="20.00" length="7.09" shape="598.35,8.05 599.16,3.81 600.90,1.65"/>
    </edge>
    <edge id=":2/0_6" function="internal">
        <lane id=":2/0_6_0" index="0" speed="20.00" length="11.29" shape="600.90,1.65 601.60,0.77 605.66,-1.04 611.35,-1.65"/>
    </edge>
    <edge id=":2/0_2" function="internal">
        <lane id=":2/0_2_0" index="0" speed="20.00" length="5.00" shape="611.35,4.95 609.99,5.14 609.02,5.72 608.44,6.69 608.25,8.05"/>
    </edge>
    <edge id=":2/0_3" function="internal">
        <lane id=":2/0_3_0" index="0" speed="20.00" length="19.40" shape="611.35,1.65 605.59,1.65 601.65,1.65 597.71,1.65 591.95,1.65"/>
    </edge>
    <edge id=":2/0_4" function="internal">
        <lane id=":2/0_4_0" index="0" speed="20.00" length="19.40" shape="591.95,-4.95 597.71,-4.95 601.65,-4.95 605.59,-4.95 611.35,-4.95"/>
    </edge>
    <edge id=":2/0_5" function="internal">
        <lane id=":2/0_5_0" index="0" speed="20.00" length="11.29" shape="591.95,-1.65 597.64,-1.04 601.70,0.77 602.40,1.65"/>
    </edge>
    <edge id=":2/0_7" function="internal">
        <lane id=":2/0_7_0" index="0" speed="20.00" length="7.09" shape="602.40,1.65 604.14,3.81 604.95,8.05"/>
    </edge>
    <edge id=":2/2_0" function="internal">
        <lane id=":2/2_0_0" index="0" speed="20.00" length="7.85" shape="591.75,611.35 591.56,608.55 590.98,606.55 590.01,605.35 588.65,604.95"/>
    </edge>
    <edge id=":2/2_1" function="internal">
        <lane id=":2/2_1_0" index="0" speed="20.00" length="23.01" shape="595.05,611.35 595.57,604.37 596.70,599.45 597.83,594.80 598.35,588.65"/>
    </edge>
    <edge id=":2/2_2" function="internal">
        <lane id=":2/2_2_0" index="0" speed="20.00" length="8.23" shape="598.35,611.35 599.16,605.66 600.44,603.53"/>
    </edge>
    <edge id=":2/2_12" function="internal">
        <lane id=":2/2_12_0" index="0" speed="20.00" length="12.73" shape="600.44,603.53 601.60,601.60 605.66,599.16 611.35,598.35"/>
    </edge>
    <edge id=":2/2_3" function="internal">
        <lane id=":2/2_3_0" index="0" speed="20.00" length="5.00" shape="611.35,608.25 609.99,608.44 609.02,609.02 608.44,609.99 608.25,611.35"/>
    </edge>
    <edge id=":2/2_4" function="internal">
        <lane id=":2/2_4_0" index="0" speed="20.00" length="23.01" shape="611.35,604.95 604.37,604.43 599.45,603.30 594.80,602.17 588.65,601.65"/>
    </edge>
    <edge id=":2/2_5" function="internal">
        <lane id=":2/2_5_0" index="0" speed="20.00" length="6.58" shape="611.35,601.65 605.66,600.84 604.95,600.41"/>
    </edge>
    <edge id=":2/2_13" function="internal">
        <lane id=":2/2_13_0" index="0" speed="20.00" length="14.39" shape="604.95,600.41 601.60,598.40 599.16,594.34 598.35,588.65"/>
    </edge>
    <edge id=":2/2_6" function="internal">
        <lane id=":2/2_6_0" index="0" speed="20.00" length="7.85" shape="608.25,588.65 608.44,591.45 609.02,593.45 609.99,594.65 611.35,595.05"/>
    </edge>
    <edge id=":2/2_7" function="internal">
        <lane id=":2/2_7_0" index="0" speed="20.00" length="22.70" shape="604.95,588.65 604.95,595.39 604.95,600.00 604.95,604.61 604.95,611.35"/>
    </edge>
    <edge id=":2/2_8" function="internal">
        <lane id=":2/2_8_0" index="0" speed="20.00" length="8.23" shape="601.65,588.65 600.84,594.34 599.56,596.47"/>
    </edge>
    <edge id=":2/2_14" function="internal">
        <lane id=":2/2_14_0" index="0" speed="20.00" length="12.73" shape="599.56,596.47 598.40,598.40 594.34,600.84 588.65,601.65"/>
    </edge>
    <edge id=":2/2_9" function="internal">
        <lane id=":2/2_9_0" index="0" speed="20.00" length="7.85" shape="588.65,591.75 591.45,591.56 593.45,590.98 594.65,590.01 595.05,588.65"/>
    </edge>
    <edge id=":2/2_10" function="internal">
        <lane id=":2/2_10_0" index="0" speed="20.00" length="23.01" shape="588.65,595.05 595.63,595.57 600.55,596.70 605.20,597.83 611.35,598.35"/>
    </edge>
    <edge id=":2/2_11" function="internal">
        <lane id=":2/2_11_0" index="0" speed="20.00" length="8.16" shape="588.65,598.35 595.78,599.16 596.67,599.59"/>
    </edge>
    <edge id=":2/2_15" function="internal">
        <lane id=":2/2_15_0" index="0" speed="20.00" length="15.53" shape="596.67,599.59 600.88,601.60 603.93,605.66 604.95,611.35"/>
    </edge>
    <edge id=":2/4_0" function="internal">
        <lane id=":2/4_0_0" index="0" speed="20.00" length="7.85" shape="591.75,1211.35 591.56,1208.55 590.98,1206.55 590.01,1205.35 588.65,1204.95"/>
    </edge>
    <edge id=":2/4_1" function="internal">
        <lane id=":2/4_1_0" index="0" speed="20.00" length="22.70" shape="595.05,1211.35 595.05,1204.61 595.05,1200.00 595.05,1195.39 595.05,1188.65"/>
    </edge>
    <edge id=":2/4_2" function="internal">
        <lane id=":2/4_2_0" index="0" speed="20.00" length="8.23" shape="598.35,1211.35 599.16,1205.66 600.44,1203.53"/>
    </edge>
    <edge id=":2/4_12" function="internal">
        <lane id=":2/4_12_0" index="0" speed="20.00" length="12.73" shape="600.44,1203.53 601.60,1201.60 605.66,1199.16 611.35,1198.35"/>
    </edge>
    <edge id=":2/4_3" function="internal">
        <lane id=":2/4_3_0" index="0" speed="20.00" length="7.85" shape="611.35,1208.25 608.55,1208.44 606.55,1209.03 605.35,1209.99 604.95,1211.35"/>
    </edge>
    <edge id=":2/4_4" function="internal">
        <lane id=":2/4_4_0" index="0" speed="20.00" length="23.01" shape="611.35,1204.95 604.37,1204.43 599.45,1203.30 594.80,1202.17 588.65,1201.65"/>
    </edge>
    <edge id=":2/4_5" function="internal">
        <lane id=":2/4_5_0" index="0" speed="20.00" length="8.16" shape="611.35,1201.65 604.22,1200.84 603.33,1200.41"/>
    </edge>
    <edge id=":2/4_13" function="internal">
        <lane id=":2/4_13_0" index="0" speed="20.00" length="15.53" shape="603.33,1200.41 599.13,1198.40 596.07,1194.34 595.05,1188.65"/>
    </edge>
    <edge id=":2/4_6" function="internal">
        <lane id=":2/4_6_0" index="0" speed="20.00" length="7.85" shape="608.25,1188.65 608.44,1191.45 609.02,1193.45 609.99,1194.65 611.35,1195.05"/>
    </edge>
    <edge id=":2/4_7" function="internal">
        <lane id=":2/4_7_0" index="0" speed="20.00" length="23.01" shape="604.95,1188.65 604.43,1195.63 603.30,1200.55 602.17,1205.20 601.65,1211.35"/>
    </edge>
    <edge id=":2/4_8" function="internal">
        <lane id=":2/4_8_0" index="0" speed="20.00" length="8.23" shape="601.65,1188.65 600.84,1194.34 599.56,1196.47"/>
    </edge>
    <edge id=":2/4_14" function="internal">
        <lane id=":2/4_14_0" index="0" speed="20.00" length="12.73" shape="599.56,1196.47 598.40,1198.40 594.34,1200.84 588.65,1201.65"/>
    </edge>
    <edge id=":2/4_9" function="internal">
        <lane id=":2/4_9_0" index="0" speed="20.00" length="5.00" shape="588.65,1191.75 590.01,1191.56 590.98,1190.97 591.56,1190.01 591.75,1188.65"/>
    </edge>
    <edge id=":2/4_10" function="internal">
        <lane id=":2/4_10_0" index="0" speed="20.00" length="23.01" shape="588.65,1195.05 595.63,1195.57 600.55,1196.70 605.20,1197.83 611.35,1198.35"/>
    </edge>
    <edge id=":2/4_11" function="internal">
        <lane id=":2/4_11_0" index="0" speed="20.00" length="6.58" shape="588.65,1198.35 594.34,1199.16 595.05,1199.59"/>
    </edge>
    <edge id=":2/4_15" function="internal">
        <lane id=":2/4_15_0" index="0" speed="20.00" length="14.39" shape="595.05,1199.59 598.40,1201.60 600.84,1205.66 601.65,1211.35"/>
    </edge>
    <edge id=":2/6_0" function="internal">
        <lane id=":2/6_0_0" index="0" speed="20.00" length="19.40" shape="608.05,1804.95 602.29,1804.95 598.35,1804.95 594.41,1804.95 588.65,1804.95"/>
    </edge>
    <edge id=":2/6_1" function="internal">
        <lane id=":2/6_1_0" index="0" speed="20.00" length="11.29" shape="608.05,1801.65 602.36,1801.04 598.30,1799.23 597.60,1798.35"/>
    </edge>
    <edge id=":2/6_6" function="internal">
        <lane id=":2/6_6_0" index="0" speed="20.00" length="7.09" shape="597.60,1798.35 595.86,1796.19 595.05,1791.95"/>
    </edge>
    <edge id=":2/6_2" function="internal">
        <lane id=":2/6_2_0" index="0" speed="20.00" length="5.00" shape="604.95,1791.95 605.14,1793.31 605.73,1794.28 606.69,1794.86 608.05,1795.05"/>
    </edge>
    <edge id=":2/6_3" function="internal">
        <lane id=":2/6_3_0" index="0" speed="20.00" length="7.09" shape="601.65,1791.95 600.84,1796.19 599.10,1798.35"/>
    </edge>
    <edge id=":2/6_7" function="internal">
        <lane id=":2/6_7_0" index="0" speed="20.00" length="11.29" shape="599.10,1798.35 598.40,1799.22 594.34,1801.04 588.65,1801.65"/>
    </edge>
    <edge id=":2/6_4" function="internal">
        <lane id=":2/6_4_0" index="0" speed="20.00" length="5.00" shape="588.65,1795.05 590.01,1794.86 590.98,1794.27 591.56,1793.31 591.75,1791.95"/>
    </edge>
    <edge id=":2/6_5" function="internal">
        <lane id=":2/6_5_0" index="0" speed="20.00" length="19.40" shape="588.65,1798.35 594.41,1798.35 598.35,1798.35 602.29,1798.35 608.05,1798.35"/>
    </edge>
    <edge id=":4/0_0" function="internal">
        <lane id=":4/0_0_0" index="0" speed="20.00" length="5.52" shape="1195.05,6.55 1194.95,4.41 1194.65,2.87 1194.15,1.96 1193.45,1.65"/>
    </edge>
    <edge id=":4/0_1" function="internal">
        <lane id=":4/0_1_0" index="0" speed="20.00" length="15.97" shape="1193.45,-4.95 1197.04,-4.23 1199.60,-2.08 1201.14,1.52 1201.65,6.55"/>
    </edge>
    <edge id=":4/2_0" function="internal">
        <lane id=":4/2_0_0" index="0" speed="20.00" length="20.97" shape="1204.95,591.95 1204.14,597.64 1201.70,601.70 1197.64,604.14 1191.95,604.95"/>
    </edge>
    <edge id=":4/2_1" function="internal">
        <lane id=":4/2_1_0" index="0" speed="20.00" length="7.85" shape="1191.95,595.05 1194.75,594.86 1196.75,594.27 1197.95,593.31 1198.35,591.95"/>
    </edge>
    <edge id=":4/4_0" function="internal">
        <lane id=":4/4_0_0" index="0" speed="20.00" length="7.85" shape="1195.05,1211.35 1194.86,1208.55 1194.27,1206.55 1193.31,1205.35 1191.95,1204.95"/>
    </edge>
    <edge id=":4/4_1" function="internal">
        <lane id=":4/4_1_0" index="0" speed="20.00" length="21.23" shape="1191.95,1195.05 1196.19,1196.07 1199.22,1199.13 1201.04,1204.22 1201.65,1211.35"/>
    </edge>
    <edge id=":4/6_0" function="internal">
        <lane id=":4/6_0_0" index="0" speed="20.00" length="15.97" shape="1204.95,1793.45 1204.23,1797.04 1202.08,1799.60 1198.48,1801.14 1193.45,1801.65"/>
    </edge>
    <edge id=":4/6_1" function="internal">
        <lane id=":4/6_1_0" index="0" speed="20.00" length="5.52" shape="1193.45,1795.05 1195.59,1794.95 1197.13,1794.65 1198.04,1794.15 1198.35,1793.45"/>
    </edge>
    <edge id="0/0to0/2" from="0/0" to="0/2" priority="-1">
        <lane id="0/0to0/2_0" index="0" speed="20.00" length="582.10" shape="4.95,6.55 4.95,588.65"/>
        <lane id="0/0to0/2_1" index="1" speed="20.00" length="582.10" shape="1.65,6.55 1.65,588.65"/>
    </edge>
    <edge id="0/0to2/0" from="0/0" to="2/0" priority="-1">
        <lane id="0/0to2/0_0" index="0" speed="20.00" length="585.40" shape="6.55,-4.95 591.95,-4.95"/>
        <lane id="0/0to2/0_1" index="1" speed="20.00" length="585.40" shape="6.55,-1.65 591.95,-1.65"/>
    </edge>
    <edge id="0/2to0/0" from="0/2" to="0/0" priority="-1">
        <lane id="0/2to0/0_0" index="0" speed="20.00" length="582.10" shape="-4.95,588.65 -4.95,6.55"/>
        <lane id="0/2to0/0_1" index="1" speed="20.00" length="582.10" shape="-1.65,588.65 -1.65,6.55"/>
    </edge>
    <edge id="0/2to2/2" from="0/2" to="2/2" priority="-1">
        <lane id="0/2to2/2_0" index="0" speed="20.00" length="580.60" shape="8.05,591.75 588.65,591.75"/>
        <lane id="0/2to2/2_1" index="1" speed="20.00" length="580.60" shape="8.05,595.05 588.65,595.05"/>
        <lane id="0/2to2/2_2" index="2" speed="20.00" length="580.60" shape="8.05,598.35 588.65,598.35"/>
    </edge>
    <edge id="0/4to0/6" from="0/4" to="0/6" priority="-1">
        <lane id="0/4to0/6_0" index="0" speed="20.00" length="585.40" shape="4.95,1208.05 4.95,1793.45"/>
        <lane id="0/4to0/6_1" index="1" speed="20.00" length="585.40" shape="1.65,1208.05 1.65,1793.45"/>
    </edge>
    <edge id="0/4to2/4" from="0/4" to="2/4" priority="-1">
        <lane id="0/4to2/4_0" index="0" speed="20.00" length="580.60" shape="8.05,1191.75 588.65,1191.75"/>
        <lane id="0/4to2/4_1" index="1" speed="20.00" length="580.60" shape="8.05,1195.05 588.65,1195.05"/>
        <lane id="0/4to2/4_2" index="2" speed="20.00" length="580.60" shape="8.05,1198.35 588.65,1198.35"/>
    </edge>
    <edge id="0/6to0/4" from="0/6" to="0/4" priority="-1">
        <lane id="0/6to0/4_0" index="0" speed="20.00" length="585.40" shape="-4.95,1793.45 -4.95,1208.05"/>
        <lane id="0/6to0/4_1" index="1" speed="20.00" length="585.40" shape="-1.65,1793.45 -1.65,1208.05"/>
    </edge>
    <edge id="0/6to2/6" from="0/6" to="2/6" priority="-1">
        <lane id="0/6to2/6_0" index="0" speed="20.00" length="582.10" shape="6.55,1795.05 588.65,1795.05"/>
        <lane id="0/6to2/6_1" index="1" speed="20.00" length="582.10" shape="6.55,1798.35 588.65,1798.35"/>
    </edge>
    <edge id="2/0to0/0" from="2/0" to="0/0" priority="-1">
        <lane id="2/0to0/0_0" index="0" speed="20.00" length="585.40" shape="591.95,4.95 6.55,4.95"/>
        <lane id="2/0to0/0_1" index="1" speed="20.00" length="585.40" shape="591.95,1.65 6.55,1.65"/>
    </edge>
    <edge id="2/0to2/2" from="2/0" to="2/2" priority="-1">
        <lane id="2/0to2/2_0" index="0" speed="20.00" length="580.60" shape="608.25,8.05 608.25,588.65"/>
        <lane id="2/0to2/2_1" index="1" speed="20.00" length="580.60" shape="604.95,8.05 604.95,588.65"/>
        <lane id="2/0to2/2_2" index="2" speed="20.00" length="580.60" shape="601.65,8.05 601.65,588.65"/>
    </edge>
    <edge id="2/0to4/0" from="2/0" to="4/0" priority="-1">
        <lane id="2/0to4/0_0" index="0" speed="20.00" length="582.10" shape="611.35,-4.95 1193.45,-4.95"/>
        <lane id="2/0to4/0_1" index="1" speed="20.00" length="582.10" shape="611.35,-1.65 1193.45,-1.65"/>
    </edge>
    <edge id="2/2to0/2" from="2/2" to="0/2" priority="-1">
        <lane id="2/2to0/2_0" index="0" speed="20.00" length="580.60" shape="588.65,604.95 8.05,604.95"/>
        <lane id="2/2to0/2_1" index="1" speed="20.00" length="580.60" shape="588.65,601.65 8.05,601.65"/>
    </edge>
    <edge id="2/2to2/0" from="2/2" to="2/0" priority="-1">
        <lane id="2/2to2/0_0" index="0" speed="20.00" length="580.60" shape="595.05,588.65 595.05,8.05"/>
        <lane id="2/2to2/0_1" index="1" speed="20.00" length="580.60" shape="598.35,588.65 598.35,8.05"/>
    </edge>
    <edge id="2/2to2/4" from="2/2" to="2/4" priority="-1">
        <lane id="2/2to2/4_0" index="0" speed="20.00" length="577.30" shape="608.25,611.35 608.25,1188.65"/>
        <lane id="2/2to2/4_1" index="1" speed="20.00" length="577.30" shape="604.95,611.35 604.95,1188.65"/>
        <lane id="2/2to2/4_2" index="2" speed="20.00" length="577.30" shape="601.65,611.35 601.65,1188.65"/>
    </edge>
    <edge id="2/2to4/2" from="2/2" to="4/2" priority="-1">
        <lane id="2/2to4/2_0" index="0" speed="20.00" length="580.60" shape="611.35,595.05 1191.95,595.05"/>
        <lane id="2/2to4/2_1" index="1" speed="20.00" length="580.60" shape="611.35,598.35 1191.95,598.35"/>
    </edge>
    <edge id="2/4to0/4" from="2/4" to="0/4" priority="-1">
        <lane id="2/4to0/4_0" index="0" speed="20.00" length="580.60" shape="588.65,1204.95 8.05,1204.95"/>
        <lane id="2/4to0/4_1" index="1" speed="20.00" length="580.60" shape="588.65,1201.65 8.05,1201.65"/>
    </edge>
    <edge id="2/4to2/2" from="2/4" to="2/2" priority="-1">
        <lane id="2/4to2/2_0" index="0" speed="20.00" length="577.30" shape="591.75,1188.65 591.75,611.35"/>
        <lane id="2/4to2/2_1" index="1" speed="20.00" length="577.30" shape="595.05,1188.65 595.05,611.35"/>
        <lane id="2/4to2/2_2" index="2" speed="20.00" length="577.30" shape="598.35,1188.65 598.35,611.35"/>
    </edge>
    <edge id="2/4to2/6" from="2/4" to="2/6" priority="-1">
        <lane id="2/4to2/6_0" index="0" speed="20.00" length="580.60" shape="604.95,1211.35 604.95,1791.95"/>
        <lane id="2/4to2/6_1" index="1" speed="20.00" length="580.60" shape="601.65,1211.35 601.65,1791.95"/>
    </edge>
    <edge id="2/4to4/4" from="2/4" to="4/4" priority="-1">
        <lane id="2/4to4/4_0" index="0" speed="20.00" length="580.60" shape="611.35,1195.05 1191.95,1195.05"/>
        <lane id="2/4to4/4_1" index="1" speed="20.00" length="580.60" shape="611.35,1198.35 1191.95,1198.35"/>
    </edge>
    <edge id="2/6to0/6" from="2/6" to="0/6" priority="-1">
        <lane id="2/6to0/6_0" index="0" speed="20.00" length="582.10" shape="588.65,1804.95 6.55,1804.95"/>
        <lane id="2/6to0/6_1" index="1" speed="20.00" length="582.10" shape="588.65,1801.65 6.55,1801.65"/>
    </edge>
    <edge id="2/6to2/4" from="2/6" to="2/4" priority="-1">
        <lane id="2/6to2/4_0" index="0" speed="20.00" length="580.60" shape="591.75,1791.95 591.75,1211.35"/>
        <lane id="2/6to2/4_1" index="1" speed="20.00" length="580.60" shape="595.05,1791.95 595.05,1211.35"/>
        <lane id="2/6to2/4_2" index="2" speed="20.00" length="580.60" shape="598.35,1791.95 598.35,1211.35"/>
    </edge>
    <edge id="2/6to4/6" from="2/6" to="4/6" priority="-1">
        <lane id="2/6to4/6_0" index="0" speed="20.00" length="585.40" shape="608.05,1795.05 1193.45,1795.05"/>
        <lane id="2/6to4/6_1" index="1" speed="20.00" length="585.40" shape="608.05,1798.35 1193.45,1798.35"/>
    </edge>
    <edge id="4/0to2/0" from="4/0" to="2/0" priority="-1">
        <lane id="4/0to2/0_0" index="0" speed="20.00" length="582.10" shape="1193.45,4.95 611.35,4.95"/>
        <lane id="4/0to2/0_1" index="1" speed="20.00" length="582.10" shape="1193.45,1.65 611.35,1.65"/>
    </edge>
    <edge id="4/0to4/2" from="4/0" to="4/2" priority="-1">
        <lane id="4/0to4/2_0" index="0" speed="20.00" length="585.40" shape="1204.95,6.55 1204.95,591.95"/>
        <lane id="4/0to4/2_1" index="1" speed="20.00" length="585.40" shape="1201.65,6.55 1201.65,591.95"/>
    </edge>
    <edge id="4/2to2/2" from="4/2" to="2/2" priority="-1">
        <lane id="4/2to2/2_0" index="0" speed="20.00" length="580.60" shape="1191.95,608.25 611.35,608.25"/>
        <lane id="4/2to2/2_1" index="1" speed="20.00" length="580.60" shape="1191.95,604.95 611.35,604.95"/>
        <lane id="4/2to2/2_2" index="2" speed="20.00" length="580.60" shape="1191.95,601.65 611.35,601.65"/>
    </edge>
    <edge id="4/2to4/0" from="4/2" to="4/0" priority="-1">
        <lane id="4/2to4/0_0" index="0" speed="20.00" length="585.40" shape="1195.05,591.95 1195.05,6.55"/>
        <lane id="4/2to4/0_1" index="1" speed="20.00" length="585.40" shape="1198.35,591.95 1198.35,6.55"/>
    </edge>
    <edge id="4/4to2/4" from="4/4" to="2/4" priority="-1">
        <lane id="4/4to2/4_0" index="0" speed="20.00" length="580.60" shape="1191.95,1208.25 611.35,1208.25"/>
        <lane id="4/4to2/4_1" index="1" speed="20.00" length="580.60" shape="1191.95,1204.95 611.35,1204.95"/>
        <lane id="4/4to2/4_2" index="2" speed="20.00" length="580.60" shape="1191.95,1201.65 611.35,1201.65"/>
    </edge>
    <edge id="4/4to4/6" from="4/4" to="4/6" priority="-1">
        <lane id="4/4to4/6_0" index="0" speed="20.00" length="582.10" shape="1204.95,1211.35 1204.95,1793.45"/>
        <lane id="4/4to4/6_1" index="1" speed="20.00" length="582.10" shape="1201.65,1211.35 1201.65,1793.45"/>
    </edge>
    <edge id="4/6to2/6" from="4/6" to="2/6" priority="-1">
        <lane id="4/6to2/6_0" index="0" speed="20.00" length="585.40" shape="1193.45,1804.95 608.05,1804.95"/>
        <lane id="4/6to2/6_1" index="1" speed="20.00" length="585.40" shape="1193.45,1801.65 608.05,1801.65"/>
    </edge>
    <edge id="4/6to4/4" from="4/6" to="4/4" priority="-1">
        <lane id="4/6to4/4_0" index="0" speed="20.00" length="582.10" shape="1195.05,1793.45 1195.05,1211.35"/>
        <lane id="4/6to4/4_1" index="1" speed="20.00" length="582.10" shape="1198.35,1793.45 1198.35,1211.35"/>
    </edge>
    <tlLogic id="0/0" type="static" programID="0" offset="0">
        <phase duration="30" state="GGGG"/>
    </tlLogic>
    <tlLogic id="0/2" type="static" programID="0" offset="0">
        <phase duration="30" state="GGGG"/>
    </tlLogic>
    <tlLogic id="0/4" type="static" programID="0" offset="0">
        <phase duration="30" state="GGGG"/>
    </tlLogic>
    <tlLogic id="0/6" type="static" programID="0" offset="0">
        <phase duration="30" state="GGGG"/>
    </tlLogic>
    <tlLogic id="2/0" type="static" programID="0" offset="0">
        <phase duration="27" state="GGrGrG"/>
        <phase duration="3" state="yGrGrG"/>
        <phase duration="27" state="rGGGrG"/>
        <phase duration="3" state="rGyGrG"/>
        <phase duration="27" state="rGrGGG"/>
        <phase duration="3" state="rGrGyG"/>
    </tlLogic>
    <tlLogic id="2/2" type="static" programID="0" offset="0">
        <phase duration="27" state="GGGrrGrrGrrG"/>
        <phase duration="3" state="yyGrrGrrGrrG"/>
        <phase duration="27" state="rrGGGGrrGrrG"/>
        <phase duration="3" state="rrGyyGrrGrrG"/>
        <phase duration="27" state="rrGrrGGGGrrG"/>
        <phase duration="3" state="rrGrrGyyGrrG"/>
        <phase duration="27" state="rrGrrGrrGGGG"/>
        <phase duration="3" state="rrGrrGrrGyyG"/>
    </tlLogic>
    <tlLogic id="2/4" type="static" programID="0" offset="0">
        <phase duration="27" state="GGGrrGrrGrrG"/>
        <phase duration="3" state="yyGrrGrrGrrG"/>
        <phase duration="27" state="rrGGGGrrGrrG"/>
        <phase duration="3" state="rrGyyGrrGrrG"/>
        <phase duration="27" state="rrGrrGGGGrrG"/>
        <phase duration="3" state="rrGrrGyyGrrG"/>
        <phase duration="27" state="rrGrrGrrGGGG"/>
        <phase duration="3" state="rrGrrGrrGyyG"/>
    </tlLogic>
    <tlLogic id="2/6" type="static" programID="0" offset="0">
        <phase duration="27" state="GGrGrG"/>
        <phase duration="3" state="yGrGrG"/>
        <phase duration="27" state="rGGGrG"/>
        <phase duration="3" state="rGyGrG"/>
        <phase duration="27" state="rGrGGG"/>
        <phase duration="3" state="rGrGyG"/>
    </tlLogic>
    <tlLogic id="4/0" type="static" programID="0" offset="0">
        <phase duration="30" state="GGGG"/>
    </tlLogic>
    <tlLogic id="4/2" type="static" programID="0" offset="0">
        <phase duration="30" state="GGGG"/>
    </tlLogic>
    <tlLogic id="4/4" type="static" programID="0" offset="0">
        <phase duration="30" state="GGGG"/>
    </tlLogic>
    <tlLogic id="4/6" type="static" programID="0" offset="0">
        <phase duration="30" state="GGGG"/>
    </tlLogic>
    <junction id="0/0" type="traffic_light" x="0.00" y="0.00" incLanes="0/2to0/0_0 0/2to0/0_1 2/0to0/0_0 2/0to0/0_1" intLanes=":0/0_0_0 :0/0_1_0" shape="-6.55,6.55 6.55,6.55 6.55,-6.55">
        <request index="0" response="00" foes="00" cont="0"/>
        <request index="1" response="00" foes="00" cont="0"/>
    </junction>
    <junction id="0/2" type="traffic_light" x="0.00" y="600.00" incLanes="2/2to0/2_0 2/2to0/2_1 0/0to0/2_0 0/0to0/2_1" intLanes=":0/2_0_0 :0/2_1_0" shape="8.05,606.55 8.05,590.15 6.55,588.65 -6.55,588.65">
        <request index="0" response="00" foes="00" cont="0"/>
        <request index="1" response="00" foes="00" cont="0"/>
    </junction>
    <junction id="0/4" type="traffic_light" x="0.00" y="1200.00" incLanes="0/6to0/4_0 0/6to0/4_1 2/4to0/4_0 2/4to0/4_1" intLanes=":0/4_0_0 :0/4_1_0" shape="-6.55,1208.05 6.55,1208.05 8.05,1206.55 8.05,1190.15">
        <request index="0" response="00" foes="00" cont="0"/>
        <request index="1" response="00" foes="00" cont="0"/>
    </junction>
    <junction id="0/6" type="traffic_light" x="0.00" y="1800.00" incLanes="2/6to0/6_0 2/6to0/6_1 0/4to0/6_0 0/4to0/6_1" intLanes=":0/6_0_0 :0/6_1_0" shape="6.55,1806.55 6.55,1793.45 -6.55,1793.45">
        <request index="0" response="00" foes="00" cont="0"/>
        <request index="1" response="00" foes="00" cont="0"/>
    </junction>
    <junction id="2/0" type="traffic_light" x="600.00" y="0.00" incLanes="2/2to2/0_0 2/2to2/0_1 4/0to2/0_0 4/0to2/0_1 0/0to2/0_0 0/0to2/0_1" intLanes=":2/0_0_0 :2/0_6_0 :2/0_2_0 :2/0_3_0 :2/0_4_0 :2/0_7_0" shape="593.45,8.05 609.85,8.05 611.35,6.55 611.35,-6.55 591.95,-6.55 591.95,6.55">
        <request index="0" response="000000" foes="000000" cont="0"/>
        <request index="1" response="000000" foes="000000" cont="1"/>
        <request index="2" response="000000" foes="000000" cont="0"/>
        <request index="3" response="000000" foes="000000" cont="0"/>
        <request index="4" response="000000" foes="000000" cont="0"/>
        <request index="5" response="000000" foes="000000" cont="1"/>
    </junction>
    <junction id="2/2" type="traffic_light" x="600.00" y="600.00" incLanes="2/4to2/2_0 2/4to2/2_1 2/4to2/2_2 4/2to2/2_0 4/2to2/2_1 4/2to2/2_2 2/0to2/2_0 2/0to2/2_1 2/0to2/2_2 0/2to2/2_0 0/2to2/2_1 0/2to2/2_2" intLanes=":2/2_0_0 :2/2_1_0 :2/2_12_0 :2/2_3_0 :2/2_4_0 :2/2_13_0 :2/2_6_0 :2/2_7_0 :2/2_14_0 :2/2_9_0 :2/2_10_0 :2/2_15_0" shape="590.15,611.35 609.85,611.35 611.35,609.85 611.35,593.45 609.85,588.65 593.45,588.65 588.65,590.15 588.65,606.55">
        <request index="0" response="000000000000" foes="000000000000" cont="0"/>
        <request index="1" response="000000000000" foes="000000000000" cont="0"/>
        <request index="2" response="000000000000" foes="000000000000" cont="1"/>
        <request index="3" response="000000000000" foes="000000000000" cont="0"/>
        <request index="4" response="000000000000" foes="000000000000" cont="0"/>
        <request index="5" response="000000000000" foes="000000000000" cont="1"/>
        <request index="6" response="000000000000" foes="000000000000" cont="0"/>
        <request index="7" response="000000000000" foes="000000000000" cont="0"/>
        <request index="8" response="000000000000" foes="000000000000" cont="1"/>
        <request index="9" response="000000000000" foes="000000000000" cont="0"/>
        <request index="10" response="000000000000" foes="000000000000" cont="0"/>
        <request index="11" response="000000000000" foes="000000000000" cont="1"/>
    </junction>
    <junction id="2/4" type="traffic_light" x="600.00" y="1200.00" incLanes="2/6to2/4_0 2/6to2/4_1 2/6to2/4_2 4/4to2/4_0 4/4to2/4_1 4/4to2/4_2 2/2to2/4_0 2/2to2/4_1 2/2to2/4_2 0/4to2/4_0 0/4to2/4_1 0/4to2/4_2" intLanes=":2/4_0_0 :2/4_1_0 :2/4_12_0 :2/4_3_0 :2/4_4_0 :2/4_13_0 :2/4_6_0 :2/4_7_0 :2/4_14_0 :2/4_9_0 :2/4_10_0 :2/4_15_0" shape="590.15,1211.35 606.55,1211.35 611.35,1209.85 611.35,1193.45 609.85,1188.65 590.15,1188.65 588.65,1190.15 588.65,1206.55">