<?xml version="1.0" encoding="UTF-8"?>
<!-- generated on 04/14/16 18:43:50 by SUMO netconvert Version 0.22.0
<?xml version="1.0" encoding="UTF-8"?>

<configuration xmlns:xsi="http://www.w3.org/2001/XMLSchema-instance" xsi:noNamespaceSchemaLocation="http://sumo.dlr.de/xsd/netconvertConfiguration.xsd">

    <input>
        <node-files value="wuhan.nod.xml"/>
        <edge-files value="wuhan.edg.xml"/>
        <connection-files value="wuhan.con.xml"/>
        <tllogic-files value="wuhan.tll.xml"/>
    </input>

    <output>
        <output-file value="wuhan.net.xml"/>
    </output>

    <report>
        <log value="wuhan.net.log"/>
    </report>

</configuration>
-->
<net version="0.13" xmlns:xsi="http://www.w3.org/2001/XMLSchema-instance" xsi:noNamespaceSchemaLocation="http://sumo.dlr.de/xsd/net_file.xsd">
    <location netOffset="-465.86,0.00" convBoundary="0.00,0.00,8283.53,7497.40" origBoundary="0.00,0.00,18000.00,14000.00" projParameter="!"/>
    <edge id=":10/10_0" function="internal">
        <lane id=":10/10_0_0" index="0" speed="20.00" length="7.40" shape="2967.51,3516.57 2966.74,3515.47 2965.37,3514.79 2963.41,3514.55 2960.86,3514.73"/>
    </edge>
    <edge id=":10/10_1" function="internal">
        <lane id=":10/10_1_0" index="0" speed="20.00" length="16.51" shape="2970.61,3515.44 2968.93,3510.83 2967.76,3507.69 2966.57,3504.55 2964.82,3499.98"/>
    </edge>
    <edge id=":10/10_2" function="internal">
        <lane id=":10/10_2_0" index="0" speed="20.00" length="16.63" shape="2970.98,3497.62 2972.75,3502.22 2973.95,3505.38 2975.12,3508.55 2976.82,3513.18"/>
    </edge>
    <edge id=":10/10_3" function="internal">
        <lane id=":10/10_3_0" index="0" speed="20.00" length="9.37" shape="2967.90,3498.80 2969.02,3503.73 2968.14,3507.48 2967.80,3507.79"/>
    </edge>
    <edge id=":10/10_6" function="internal">
        <lane id=":10/10_6_0" index="0" speed="20.00" length="8.46" shape="2967.80,3507.79 2965.27,3510.06 2960.41,3511.46"/>
    </edge>
    <edge id=":10/10_4" function="internal">
        <lane id=":10/10_4_0" index="0" speed="20.00" length="5.30" shape="2959.51,3504.92 2960.95,3504.50 2961.81,3503.74 2962.07,3502.62 2961.73,3501.16"/>
    </edge>
    <edge id=":10/10_5" function="internal">
        <lane id=":10/10_5_0" index="0" speed="20.00" length="8.31" shape="2959.96,3508.19 2964.94,3508.00 2968.17,3508.79"/>
    </edge>
    <edge id=":10/10_7" function="internal">
        <lane id=":10/10_7_0" index="0" speed="20.00" length="8.10" shape="2968.17,3508.79 2968.89,3508.96 2971.81,3511.06 2973.71,3514.31"/>
    </edge>
    <edge id=":10/12_0" function="internal">
        <lane id=":10/12_0_0" index="0" speed="20.00" length="15.27" shape="3095.67,3830.51 3091.73,3832.56 3089.44,3834.71 3087.21,3836.98 3083.43,3839.43"/>
    </edge>
    <edge id=":10/12_1" function="internal">
        <lane id=":10/12_1_0" index="0" speed="20.00" length="8.77" shape="3094.50,3827.42 3090.28,3828.37 3086.78,3827.73 3086.09,3827.17"/>
    </edge>
    <edge id=":10/12_6" function="internal">
        <lane id=":10/12_6_0" index="0" speed="20.00" length="6.99" shape="3086.09,3827.17 3084.02,3825.50 3081.97,3821.68"/>
    </edge>
    <edge id=":10/12_2" function="internal">
        <lane id=":10/12_2_0" index="0" speed="20.00" length="5.02" shape="3088.18,3819.43 3088.83,3820.64 3089.71,3821.35 3090.82,3821.55 3092.16,3821.25"/>
    </edge>
    <edge id=":10/12_3" function="internal">
        <lane id=":10/12_3_0" index="0" speed="20.00" length="6.63" shape="3085.08,3820.55 3086.54,3826.11 3086.53,3826.99"/>
    </edge>
    <edge id=":10/12_7" function="internal">
        <lane id=":10/12_7_0" index="0" speed="20.00" length="11.27" shape="3086.53,3826.99 3086.51,3830.61 3084.98,3834.07 3081.96,3836.48"/>
    </edge>
    <edge id=":10/12_4" function="internal">
        <lane id=":10/12_4_0" index="0" speed="20.00" length="5.55" shape="3077.53,3827.62 3078.60,3826.83 3079.17,3825.76 3079.27,3824.42 3078.87,3822.81"/>
    </edge>
    <edge id=":10/12_5" function="internal">
        <lane id=":10/12_5_0" index="0" speed="20.00" length="15.64" shape="3079.01,3830.57 3083.17,3828.52 3086.05,3827.18 3089.00,3825.99 3093.33,3824.34"/>
    </edge>
    <edge id=":10/14_0" function="internal">
        <lane id=":10/14_0_0" index="0" speed="20.00" length="5.85" shape="4023.08,4414.69 4017.25,4415.11"/>
    </edge>
    <edge id=":10/14_1" function="internal">
        <lane id=":10/14_1_0" index="0" speed="20.00" length="10.64" shape="4011.82,4411.35 4013.66,4408.83 4015.22,4407.29 4017.16,4406.25 4020.12,4405.25"/>
    </edge>
    <edge id=":10/16_0" function="internal">
        <lane id=":10/16_0_0" index="0" speed="20.00" length="5.19" shape="3758.18,4799.70 3757.08,4798.75 3755.98,4798.43 3754.89,4798.75 3753.80,4799.71"/>
    </edge>
    <edge id=":10/16_1" function="internal">
        <lane id=":10/16_1_0" index="0" speed="20.00" length="7.74" shape="3760.67,4797.54 3757.99,4793.71 3756.97,4790.81"/>
    </edge>
    <edge id=":10/16_6" function="internal">
        <lane id=":10/16_6_0" index="0" speed="20.00" length="7.95" shape="3756.97,4790.81 3756.71,4790.05 3756.83,4786.57 3758.37,4783.25"/>
    </edge>
    <edge id=":10/16_2" function="internal">
        <lane id=":10/16_2_0" index="0" speed="20.00" length="6.94" shape="3763.79,4787.01 3763.33,4788.24 3763.48,4789.68 3764.26,4791.34 3765.66,4793.21"/>
    </edge>
    <edge id=":10/16_3" function="internal">
        <lane id=":10/16_3_0" index="0" speed="20.00" length="15.84" shape="3761.08,4785.13 3758.38,4788.97 3756.43,4791.53 3754.36,4794.00 3751.29,4797.56"/>
    </edge>
    <edge id=":10/16_4" function="internal">
        <lane id=":10/16_4_0" index="0" speed="20.00" length="15.16" shape="3746.28,4793.27 3749.22,4789.86 3751.20,4787.50 3753.06,4785.05 3755.65,4781.37"/>
    </edge>
    <edge id=":10/16_5" function="internal">
        <lane id=":10/16_5_0" index="0" speed="20.00" length="9.11" shape="3748.79,4795.41 3752.37,4792.28 3755.96,4791.22 3756.54,4791.39"/>
    </edge>
    <edge id=":10/16_7" function="internal">
        <lane id=":10/16_7_0" index="0" speed="20.00" length="7.91" shape="3756.54,4791.39 3759.56,4792.26 3763.17,4795.38"/>
    </edge>
    <edge id=":10/18_0" function="internal">
        <lane id=":10/18_0_0" index="0" speed="20.00" length="15.82" shape="3615.42,5348.13 3610.85,5348.39 3607.82,5349.58 3604.80,5350.98 3600.23,5351.93"/>
    </edge>
    <edge id=":10/18_1" function="internal">
        <lane id=":10/18_1_0" index="0" speed="20.00" length="7.46" shape="3615.65,5344.84 3612.58,5343.97 3609.67,5341.81 3609.27,5341.31"/>
    </edge>
    <edge id=":10/18_6" function="internal">
        <lane id=":10/18_6_0" index="0" speed="20.00" length="9.19" shape="3609.27,5341.31 3606.91,5338.35 3604.29,5333.61"/>
    </edge>
    <edge id=":10/18_2" function="internal">
        <lane id=":10/18_2_0" index="0" speed="20.00" length="9.74" shape="3610.27,5330.80 3611.92,5334.00 3613.44,5336.30 3614.84,5337.72 3616.12,5338.25"/>
    </edge>
    <edge id=":10/18_3" function="internal">
        <lane id=":10/18_3_0" index="0" speed="20.00" length="9.47" shape="3607.28,5332.21 3609.51,5338.95 3609.29,5341.31"/>
    </edge>
    <edge id=":10/18_7" function="internal">
        <lane id=":10/18_7_0" index="0" speed="20.00" length="13.25" shape="3609.29,5341.31 3609.03,5343.93 3605.85,5347.16 3599.96,5348.64"/>
    </edge>
    <edge id=":10/18_4" function="internal">
        <lane id=":10/18_4_0" index="0" speed="20.00" length="5.50" shape="3599.14,5338.78 3600.70,5338.42 3601.58,5337.68 3601.78,5336.54 3601.31,5335.02"/>
    </edge>
    <edge id=":10/18_5" function="internal">
        <lane id=":10/18_5_0" index="0" speed="20.00" length="16.51" shape="3599.41,5342.07 3604.30,5341.61 3607.65,5341.33 3611.00,5341.28 3615.89,5341.54"/>
    </edge>
    <edge id=":10/8_0" function="internal">
        <lane id=":10/8_0_0" index="0" speed="20.00" length="5.72" shape="2444.13,2149.63 2443.34,2148.08 2442.36,2147.07 2441.21,2146.62 2439.88,2146.72"/>
    </edge>
    <edge id=":10/8_1" function="internal">
        <lane id=":10/8_1_0" index="0" speed="20.00" length="7.21" shape="2447.21,2148.45 2446.23,2144.12 2446.75,2141.40"/>
    </edge>
    <edge id=":10/8_6" function="internal">
        <lane id=":10/8_6_0" index="0" speed="20.00" length="8.88" shape="2446.75,2141.40 2446.90,2140.58 2449.23,2137.83 2453.21,2135.86"/>
    </edge>
    <edge id=":10/8_2" function="internal">
        <lane id=":10/8_2_0" index="0" speed="20.00" length="5.06" shape="2455.26,2142.13 2454.01,2142.75 2453.28,2143.62 2453.07,2144.73 2453.37,2146.09"/>
    </edge>
    <edge id=":10/8_3" function="internal">
        <lane id=":10/8_3_0" index="0" speed="20.00" length="15.87" shape="2454.24,2139.00 2449.76,2140.46 2446.68,2141.42 2443.58,2142.31 2439.03,2143.53"/>
    </edge>
    <edge id=":10/8_4" function="internal">
        <lane id=":10/8_4_0" index="0" speed="20.00" length="15.50" shape="2437.33,2137.16 2441.78,2135.96 2444.80,2135.09 2447.81,2134.15 2452.18,2132.72"/>
    </edge>
    <edge id=":10/8_5" function="internal">
        <lane id=":10/8_5_0" index="0" speed="20.00" length="8.43" shape="2438.18,2140.35 2442.16,2139.92 2445.50,2140.93 2446.20,2141.56"/>
    </edge>
    <edge id=":10/8_7" function="internal">
        <lane id=":10/8_7_0" index="0" speed="20.00" length="7.13" shape="2446.20,2141.56 2448.21,2143.38 2450.29,2147.27"/>
    </edge>
    <edge id=":12/16_0" function="internal">
        <lane id=":12/16_0_0" index="0" speed="20.00" length="10.43" shape="3941.83,5016.20 3941.23,5013.17 3940.65,5011.09 3939.62,5009.23 3937.70,5006.84"/>
    </edge>
    <edge id=":12/16_1" function="internal">
        <lane id=":12/16_1_0" index="0" speed="20.00" length="8.19" shape="3945.07,5015.55 3944.83,5011.57 3945.88,5008.36 3946.45,5007.76"/>
    </edge>
    <edge id=":12/16_6" function="internal">
        <lane id=":12/16_6_0" index="0" speed="20.00" length="6.55" shape="3946.45,5007.76 3948.21,5005.90 3951.81,5004.20"/>
    </edge>
    <edge id=":12/16_2" function="internal">
        <lane id=":12/16_2_0" index="0" speed="20.00" length="4.88" shape="3953.77,5010.50 3952.58,5011.06 3951.81,5011.88 3951.46,5012.94 3951.54,5014.26"/>
    </edge>
    <edge id=":12/16_3" function="internal">
        <lane id=":12/16_3_0" index="0" speed="20.00" length="6.29" shape="3952.79,5007.35 3948.97,5008.13 3946.58,5008.00"/>
    </edge>
    <edge id=":12/16_7" function="internal">
        <lane id=":12/16_7_0" index="0" speed="20.00" length="7.38" shape="3946.58,5008.00 3945.59,5007.94 3942.67,5006.79 3940.20,5004.68"/>
    </edge>
    <edge id=":12/16_4" function="internal">
        <lane id=":12/16_4_0" index="0" speed="20.00" length="6.01" shape="3945.19,5000.36 3946.16,5001.12 3947.43,5001.49 3948.99,5001.47 3950.83,5001.05"/>
    </edge>
    <edge id=":12/16_5" function="internal">
        <lane id=":12/16_5_0" index="0" speed="20.00" length="13.87" shape="3942.69,5002.52 3945.26,5005.69 3946.67,5008.14 3947.49,5010.88 3948.30,5014.91"/>
    </edge>
    <edge id=":12/18_0" function="internal">
        <lane id=":12/18_0_0" index="0" speed="20.00" length="16.59" shape="4024.14,5377.32 4019.23,5376.97 4015.87,5376.73 4012.51,5376.49 4007.60,5376.14"/>
    </edge>
    <edge id=":12/18_1" function="internal">
        <lane id=":12/18_1_0" index="0" speed="20.00" length="7.95" shape="4024.38,5374.03 4020.86,5373.09 4018.03,5370.83 4017.67,5370.24"/>
    </edge>
    <edge id=":12/18_6" function="internal">
        <lane id=":12/18_6_0" index="0" speed="20.00" length="8.61" shape="4017.67,5370.24 4015.88,5367.25 4014.42,5362.34"/>
    </edge>
    <edge id=":12/18_2" function="internal">
        <lane id=":12/18_2_0" index="0" speed="20.00" length="7.97" shape="4020.90,5361.05 4021.61,5363.78 4022.51,5365.75 4023.59,5366.97 4024.85,5367.45"/>
    </edge>
    <edge id=":12/18_3" function="internal">
        <lane id=":12/18_3_0" index="0" speed="20.00" length="8.76" shape="4017.66,5361.70 4017.95,5366.90 4016.55,5370.16"/>
    </edge>
    <edge id=":12/18_7" function="internal">
        <lane id=":12/18_7_0" index="0" speed="20.00" length="9.49" shape="4016.55,5370.16 4016.41,5370.50 4013.03,5372.48 4007.83,5372.85"/>
    </edge>
    <edge id=":12/18_4" function="internal">
        <lane id=":12/18_4_0" index="0" speed="20.00" length="5.36" shape="4008.30,5366.27 4009.83,5366.16 4010.82,5365.57 4011.27,5364.52 4011.19,5362.99"/>
    </edge>
    <edge id=":12/18_5" function="internal">
        <lane id=":12/18_5_0" index="0" speed="20.00" length="16.59" shape="4008.07,5369.56 4012.98,5369.91 4016.34,5370.15 4019.70,5370.39 4024.61,5370.74"/>
    </edge>
    <edge id=":14/12_0" function="internal">
        <lane id=":14/12_0_0" index="0" speed="20.00" length="14.71" shape="3939.40,3511.39 3935.17,3512.47 3932.30,3513.29 3929.47,3514.26 3925.38,3515.79"/>
    </edge>
    <edge id=":14/12_1" function="internal">
        <lane id=":14/12_1_0" index="0" speed="20.00" length="9.81" shape="3938.59,3508.19 3934.39,3508.43 3930.90,3506.84 3929.78,3505.48"/>
    </edge>
    <edge id=":14/12_6" function="internal">
        <lane id=":14/12_6_0" index="0" speed="20.00" length="8.28" shape="3929.78,3505.48 3928.11,3503.43 3926.02,3498.19"/>
    </edge>
    <edge id=":14/12_2" function="internal">
        <lane id=":14/12_2_0" index="0" speed="20.00" length="4.97" shape="3932.37,3496.40 3932.92,3497.64 3933.73,3498.42 3934.81,3498.73 3936.16,3498.59"/>
    </edge>
    <edge id=":14/12_3" function="internal">
        <lane id=":14/12_3_0" index="0" speed="20.00" length="8.20" shape="3929.19,3497.30 3930.17,3502.84 3929.88,3505.39"/>
    </edge>
    <edge id=":14/12_7" function="internal">
        <lane id=":14/12_7_0" index="0" speed="20.00" length="9.80" shape="3929.88,3505.39 3929.67,3507.26 3927.69,3510.54 3924.21,3512.71"/>
    </edge>
    <edge id=":14/12_4" function="internal">
        <lane id=":14/12_4_0" index="0" speed="20.00" length="8.14" shape="3921.87,3506.54 3922.97,3505.68 3923.50,3504.15 3923.46,3501.95 3922.84,3499.09"/>
    </edge>
    <edge id=":14/12_5" function="internal">
        <lane id=":14/12_5_0" index="0" speed="20.00" length="16.10" shape="3923.04,3509.62 3927.28,3507.48 3929.90,3505.38 3932.58,3503.44 3936.97,3501.79"/>
    </edge>
    <edge id=":14/18_0" function="internal">
        <lane id=":14/18_0_0" index="0" speed="20.00" length="5.29" shape="4420.70,5409.09 4420.51,5407.57 4419.95,5406.45 4419.02,5405.74 4417.72,5405.43"/>
    </edge>
    <edge id=":14/18_1" function="internal">
        <lane id=":14/18_1_0" index="0" speed="20.00" length="6.62" shape="4424.00,5409.09 4424.60,5403.40 4424.97,5402.58"/>
    </edge>
    <edge id=":14/18_6" function="internal">
        <lane id=":14/18_6_0" index="0" speed="20.00" length="11.77" shape="4424.97,5402.58 4426.42,5399.34 4429.45,5396.90 4433.70,5396.09"/>
    </edge>
    <edge id=":14/18_2" function="internal">
        <lane id=":14/18_2_0" index="0" speed="20.00" length="5.00" shape="4433.70,5405.99 4432.34,5406.18 4431.37,5406.76 4430.79,5407.73 4430.60,5409.09"/>
    </edge>
    <edge id=":14/18_3" function="internal">
        <lane id=":14/18_3_0" index="0" speed="20.00" length="15.76" shape="4433.70,5402.69 4429.02,5402.68 4425.82,5402.63 4422.62,5402.46 4417.95,5402.14"/>
    </edge>
    <edge id=":14/18_4" function="internal">
        <lane id=":14/18_4_0" index="0" speed="20.00" length="15.65" shape="4418.42,5395.56 4422.98,5395.36 4426.05,5394.38 4429.13,5393.30 4433.70,5392.79"/>
    </edge>
    <edge id=":14/18_5" function="internal">
        <lane id=":14/18_5_0" index="0" speed="20.00" length="8.56" shape="4418.19,5398.85 4422.17,5399.73 4425.02,5401.74 4425.50,5402.61"/>
    </edge>
    <edge id=":14/18_7" function="internal">
        <lane id=":14/18_7_0" index="0" speed="20.00" length="6.83" shape="4425.50,5402.61 4426.73,5404.85 4427.30,5409.09"/>
    </edge>
    <edge id=":14/24_0" function="internal">
        <lane id=":14/24_0_0" index="0" speed="20.00" length="16.58" shape="4437.69,6013.18 4433.36,6015.36 4430.76,6017.56 4428.21,6019.86 4424.00,6022.35"/>
    </edge>
    <edge id=":14/24_1" function="internal">
        <lane id=":14/24_1_0" index="0" speed="20.00" length="9.84" shape="4436.52,6010.10 4431.04,6011.35 4427.13,6010.33 4427.02,6010.18"/>
    </edge>
    <edge id=":14/24_6" function="internal">
        <lane id=":14/24_6_0" index="0" speed="20.00" length="9.48" shape="4427.02,6010.18 4424.78,6007.04 4424.00,6001.47"/>
    </edge>
    <edge id=":14/24_2" function="internal">
        <lane id=":14/24_2_0" index="0" speed="20.00" length="5.51" shape="4430.60,6001.47 4430.82,6003.06 4431.49,6004.00 4432.61,6004.29 4434.17,6003.93"/>
    </edge>
    <edge id=":14/24_3" function="internal">
        <lane id=":14/24_3_0" index="0" speed="20.00" length="8.88" shape="4427.30,6001.47 4427.00,6008.48 4426.70,6010.32"/>
    </edge>
    <edge id=":14/24_7" function="internal">
        <lane id=":14/24_7_0" index="0" speed="20.00" length="10.26" shape="4426.70,6010.32 4426.12,6013.79 4424.66,6017.42 4422.60,6019.36"/>
    </edge>
    <edge id=":14/24_4" function="internal">
        <lane id=":14/24_4_0" index="0" speed="20.00" length="9.52" shape="4418.42,6010.39 4419.41,6009.43 4420.13,6007.63 4420.56,6004.97 4420.70,6001.47"/>
    </edge>
    <edge id=":14/24_5" function="internal">
        <lane id=":14/24_5_0" index="0" speed="20.00" length="16.79" shape="4419.81,6013.38 4424.34,6011.31 4427.49,6009.99 4430.68,6008.77 4435.34,6007.02"/>
    </edge>
    <edge id=":14/8_0" function="internal">
        <lane id=":14/8_0_0" index="0" speed="20.00" length="11.83" shape="3205.72,1901.75 3203.48,1900.31 3200.87,1899.62 3197.87,1899.67 3194.50,1900.46"/>
    </edge>
    <edge id=":14/8_1" function="internal">
        <lane id=":14/8_1_0" index="0" speed="20.00" length="7.57" shape="3207.91,1899.28 3203.97,1894.93 3203.29,1893.37"/>
    </edge>
    <edge id=":14/8_6" function="internal">
        <lane id=":14/8_6_0" index="0" speed="20.00" length="11.31" shape="3203.29,1893.37 3202.17,1890.78 3202.52,1886.82 3205.02,1883.05"/>
    </edge>
    <edge id=":14/8_2" function="internal">
        <lane id=":14/8_2_0" index="0" speed="20.00" length="5.06" shape="3212.12,1889.95 3211.30,1891.08 3211.05,1892.19 3211.38,1893.27 3212.28,1894.34"/>
    </edge>
    <edge id=":14/8_3" function="internal">
        <lane id=":14/8_3_0" index="0" speed="20.00" length="19.27" shape="3209.75,1887.65 3205.69,1891.62 3202.51,1893.93 3198.88,1895.53 3193.47,1897.32"/>
    </edge>
    <edge id=":14/8_4" function="internal">
        <lane id=":14/8_4_0" index="0" speed="20.00" length="15.58" shape="3191.42,1891.05 3195.48,1889.21 3197.76,1887.06 3199.67,1884.34 3202.65,1880.76"/>
    </edge>
    <edge id=":14/8_5" function="internal">
        <lane id=":14/8_5_0" index="0" speed="20.00" length="10.98" shape="3192.44,1894.19 3197.57,1893.04 3202.22,1893.09 3203.25,1893.40"/>
    </edge>
    <edge id=":14/8_7" function="internal">
        <lane id=":14/8_7_0" index="0" speed="20.00" length="7.73" shape="3203.25,1893.40 3206.40,1894.35 3210.09,1896.81"/>
    </edge>
    <edge id=":16/24_0" function="internal">
        <lane id=":16/24_0_0" index="0" speed="20.00" length="5.85" shape="5034.21,5787.82 5033.50,5785.72 5032.72,5784.33 5031.86,5783.64 5030.92,5783.66"/>
    </edge>
    <edge id=":16/24_1" function="internal">
        <lane id=":16/24_1_0" index="0" speed="20.00" length="17.11" shape="5028.57,5777.49 5032.61,5776.78 5035.95,5777.97 5038.61,5781.07 5040.58,5786.08"/>
    </edge>
    <edge id=":16/28_0" function="internal">
        <lane id=":16/28_0_0" index="0" speed="20.00" length="16.32" shape="5132.79,6103.27 5128.21,6104.67 5125.31,6106.39 5122.42,6108.13 5117.86,6109.62"/>
    </edge>
    <edge id=":16/28_1" function="internal">
        <lane id=":16/28_1_0" index="0" speed="20.00" length="8.53" shape="5132.17,6100.03 5128.10,6100.17 5124.82,6098.90 5124.18,6098.20"/>
    </edge>
    <edge id=":16/28_6" function="internal">
        <lane id=":16/28_6_0" index="0" speed="20.00" length="7.18" shape="5124.18,6098.20 5122.32,6096.20 5120.61,6092.09"/>
    </edge>
    <edge id=":16/28_2" function="internal">
        <lane id=":16/28_2_0" index="0" speed="20.00" length="5.68" shape="5126.98,6090.35 5127.61,6091.96 5128.48,6093.03 5129.59,6093.56 5130.93,6093.55"/>
    </edge>
    <edge id=":16/28_3" function="internal">
        <lane id=":16/28_3_0" index="0" speed="20.00" length="7.01" shape="5123.80,6091.22 5124.72,6097.05 5124.52,6098.14"/>
    </edge>
    <edge id=":16/28_7" function="internal">
        <lane id=":16/28_7_0" index="0" speed="20.00" length="12.01" shape="5124.52,6098.14 5123.92,6101.52 5121.41,6104.64 5117.18,6106.39"/>
    </edge>
    <edge id=":16/28_4" function="internal">
        <lane id=":16/28_4_0" index="0" speed="20.00" length="5.07" shape="5115.14,6096.70 5116.46,6096.22 5117.28,6095.43 5117.60,6094.35 5117.43,6092.96"/>
    </edge>
    <edge id=":16/28_5" function="internal">
        <lane id=":16/28_5_0" index="0" speed="20.00" length="16.04" shape="5115.82,6099.93 5120.48,6098.95 5123.68,6098.30 5126.87,6097.68 5131.55,6096.79"/>
    </edge>
    <edge id=":18/12_0" function="internal">
        <lane id=":18/12_0_0" index="0" speed="20.00" length="7.28" shape="5017.73,3244.12 5016.79,3241.77 5015.71,3240.20 5014.48,3239.40 5013.10,3239.38"/>
    </edge>
    <edge id=":18/12_1" function="internal">
        <lane id=":18/12_1_0" index="0" speed="20.00" length="24.44" shape="5020.88,3243.13 5018.74,3236.19 5017.43,3231.41 5016.33,3226.56 5014.82,3219.46"/>
    </edge>
    <edge id=":18/12_2" function="internal">
        <lane id=":18/12_2_0" index="0" speed="20.00" length="7.66" shape="5024.03,3242.14 5022.90,3235.50 5023.08,3234.59"/>
    </edge>
    <edge id=":18/12_12" function="internal">
        <lane id=":18/12_12_0" index="0" speed="20.00" length="17.18" shape="5023.08,3234.59 5024.02,3229.87 5027.39,3225.27 5033.01,3221.68"/>
    </edge>
    <edge id=":18/12_3" function="internal">
        <lane id=":18/12_3_0" index="0" speed="20.00" length="8.01" shape="5038.49,3233.69 5035.96,3235.04 5034.29,3236.41 5033.45,3237.78 5033.47,3239.16"/>
    </edge>
    <edge id=":18/12_4" function="internal">
        <lane id=":18/12_4_0" index="0" speed="20.00" length="25.55" shape="5037.12,3230.69 5029.72,3233.43 5024.00,3234.50 5018.63,3235.03 5012.29,3236.18"/>
    </edge>
    <edge id=":18/12_5" function="internal">
        <lane id=":18/12_5_0" index="0" speed="20.00" length="8.79" shape="5035.75,3227.69 5027.89,3230.16 5027.35,3230.12"/>
    </edge>
    <edge id=":18/12_13" function="internal">
        <lane id=":18/12_13_0" index="0" speed="20.00" length="18.30" shape="5027.35,3230.12 5021.78,3229.62 5017.42,3226.05 5014.82,3219.46"/>
    </edge>
    <edge id=":18/12_6" function="internal">
        <lane id=":18/12_6_0" index="0" speed="20.00" length="5.28" shape="5027.73,3216.71 5028.25,3218.12 5029.07,3218.92 5030.20,3219.10 5031.64,3218.68"/>
    </edge>
    <edge id=":18/12_7" function="internal">
        <lane id=":18/12_7_0" index="0" speed="20.00" length="23.50" shape="5024.51,3217.40 5025.95,3224.23 5027.01,3228.88 5028.27,3233.49 5030.32,3240.15"/>
    </edge>
    <edge id=":18/12_8" function="internal">
        <lane id=":18/12_8_0" index="0" speed="20.00" length="8.69" shape="5021.28,3218.09 5021.92,3224.85 5021.46,3226.70"/>
    </edge>
    <edge id=":18/12_14" function="internal">
        <lane id=":18/12_14_0" index="0" speed="20.00" length="14.09" shape="5021.46,3226.70 5020.63,3230.12 5017.42,3233.90 5012.29,3236.18"/>
    </edge>
    <edge id=":18/12_9" function="internal">
        <lane id=":18/12_9_0" index="0" speed="20.00" length="7.35" shape="5009.86,3226.59 5011.07,3225.90 5011.77,3224.60 5011.94,3222.69 5011.60,3220.15"/>
    </edge>
    <edge id=":18/12_10" function="internal">
        <lane id=":18/12_10_0" index="0" speed="20.00" length="23.82" shape="5010.67,3229.79 5017.50,3227.98 5022.11,3226.49 5026.58,3224.62 5033.01,3221.68"/>
    </edge>
    <edge id=":18/12_11" function="internal">
        <lane id=":18/12_11_0" index="0" speed="20.00" length="6.20" shape="5011.48,3232.98 5017.62,3232.09"/>
    </edge>
    <edge id=":18/12_15" function="internal">
        <lane id=":18/12_15_0" index="0" speed="20.00" length="16.37" shape="5017.62,3232.09 5018.42,3231.97 5023.87,3232.83 5027.84,3235.56 5030.32,3240.15"/>
    </edge>
    <edge id=":18/14_0" function="internal">
        <lane id=":18/14_0_0" index="0" speed="20.00" length="21.11" shape="5283.43,4022.36 5278.32,4024.57 5274.12,4027.61 5270.83,4031.49 5268.44,4036.20"/>
    </edge>
    <edge id=":18/14_1" function="internal">
        <lane id=":18/14_1_0" index="0" speed="20.00" length="30.84" shape="5282.41,4019.22 5273.01,4021.70 5265.54,4022.88 5258.96,4023.77 5252.23,4025.34"/>
    </edge>
    <edge id=":18/14_2" function="internal">
        <lane id=":18/14_2_0" index="0" speed="20.00" length="9.23" shape="5281.40,4016.08 5274.33,4017.50 5272.32,4017.23"/>
    </edge>
    <edge id=":18/14_12" function="internal">
        <lane id=":18/14_12_0" index="0" speed="20.00" length="14.57" shape="5272.32,4017.23 5268.71,4016.73 5264.56,4013.77 5261.86,4008.61"/>
    </edge>
    <edge id=":18/14_3" function="internal">
        <lane id=":18/14_3_0" index="0" speed="20.00" length="5.01" shape="5274.45,4004.65 5275.05,4005.89 5275.89,4006.63 5277.00,4006.89 5278.35,4006.66"/>
    </edge>
    <edge id=":18/14_4" function="internal">
        <lane id=":18/14_4_0" index="0" speed="20.00" length="30.97" shape="5271.31,4005.64 5272.77,4014.95 5271.34,4022.19 5268.41,4028.50 5265.35,4035.03"/>
    </edge>
    <edge id=":18/14_5" function="internal">
        <lane id=":18/14_5_0" index="0" speed="20.00" length="6.89" shape="5268.16,4006.63 5268.64,4012.48 5268.18,4013.39"/>
    </edge>
    <edge id=":18/14_13" function="internal">
        <lane id=":18/14_13_0" index="0" speed="20.00" length="20.72" shape="5268.18,4013.39 5266.14,4017.54 5260.67,4021.83 5252.23,4025.34"/>
    </edge>
    <edge id=":18/14_6" function="internal">
        <lane id=":18/14_6_0" index="0" speed="20.00" length="12.05" shape="5249.26,4015.89 5253.75,4014.27 5256.83,4012.69 5258.48,4011.13 5258.72,4009.60"/>
    </edge>
    <edge id=":18/14_7" function="internal">
        <lane id=":18/14_7_0" index="0" speed="20.00" length="30.55" shape="5250.25,4019.04 5258.83,4016.35 5264.82,4014.46 5270.81,4012.56 5279.36,4009.80"/>
    </edge>
    <edge id=":18/14_8" function="internal">
        <lane id=":18/14_8_0" index="0" speed="20.00" length="12.35" shape="5251.24,4022.19 5260.19,4020.46 5263.30,4021.37"/>
    </edge>
    <edge id=":18/14_14" function="internal">
        <lane id=":18/14_14_0" index="0" speed="20.00" length="15.85" shape="5263.30,4021.37 5265.53,4022.02 5267.25,4026.88 5265.35,4035.03"/>
    </edge>
    <edge id=":18/14_9" function="internal">
        <lane id=":18/14_9_0" index="0" speed="20.00" length="6.21" shape="5256.09,4031.53 5256.55,4029.66 5256.22,4028.53 5255.11,4028.14 5253.22,4028.49"/>
    </edge>
    <edge id=":18/14_10" function="internal">
        <lane id=":18/14_10_0" index="0" speed="20.00" length="25.06" shape="5259.18,4032.70 5261.92,4025.78 5263.49,4020.74 5263.58,4015.66 5261.86,4008.61"/>
    </edge>
    <edge id=":18/14_11" function="internal">
        <lane id=":18/14_11_0" index="0" speed="20.00" length="12.41" shape="5262.27,4033.86 5266.33,4024.44 5267.42,4022.59"/>
    </edge>
    <edge id=":18/14_15" function="internal">
        <lane id=":18/14_15_0" index="0" speed="20.00" length="17.87" shape="5267.42,4022.59 5270.53,4017.29 5274.88,4012.41 5279.36,4009.80"/>
    </edge>
    <edge id=":18/16_0" function="internal">
        <lane id=":18/16_0_0" index="0" speed="20.00" length="5.32" shape="5018.18,4683.27 5017.87,4681.79 5017.17,4680.88 5016.08,4680.55 5014.58,4680.79"/>
    </edge>
    <edge id=":18/16_1" function="internal">
        <lane id=":18/16_1_0" index="0" speed="20.00" length="22.30" shape="5021.47,4683.07 5020.72,4676.88 5019.94,4672.21 5020.01,4667.48 5021.78,4661.12"/>
    </edge>
    <edge id=":18/16_2" function="internal">
        <lane id=":18/16_2_0" index="0" speed="20.00" length="18.18" shape="5031.04,4664.62 5029.68,4669.68 5029.81,4673.34 5030.64,4677.10 5031.35,4682.48"/>
    </edge>
    <edge id=":18/16_3" function="internal">
        <lane id=":18/16_3_0" index="0" speed="20.00" length="13.31" shape="5027.95,4663.45 5025.49,4668.47 5022.28,4672.51 5020.25,4674.07"/>
    </edge>
    <edge id=":18/16_6" function="internal">
        <lane id=":18/16_6_0" index="0" speed="20.00" length="7.59" shape="5020.25,4674.07 5018.32,4675.56 5013.60,4677.64"/>
    </edge>
    <edge id=":18/16_4" function="internal">
        <lane id=":18/16_4_0" index="0" speed="20.00" length="13.64" shape="5011.65,4671.33 5013.25,4670.26 5014.96,4668.01 5016.77,4664.57 5018.69,4659.96"/>
    </edge>
    <edge id=":18/16_5" function="internal">
        <lane id=":18/16_5_0" index="0" speed="20.00" length="7.67" shape="5012.62,4674.49 5019.09,4673.29 5020.16,4673.51"/>
    </edge>
    <edge id=":18/16_7" function="internal">
        <lane id=":18/16_7_0" index="0" speed="20.00" length="13.50" shape="5020.16,4673.51 5023.82,4674.25 5026.81,4677.38 5028.06,4682.68"/>
    </edge>
    <edge id=":18/18_0" function="internal">