<?xml version="1.0" encoding="UTF-8"?>

<!-- generated on 01/11/16 18:36:06 by SUMO netconvert Version 0.22.0
<?xml version="1.0" encoding="UTF-8"?>

<configuration xmlns:xsi="http://www.w3.org/2001/XMLSchema-instance" xsi:noNamespaceSchemaLocation="http://sumo.dlr.de/xsd/netconvertConfiguration.xsd">

    <input>
        <node-files value="matrix.nod.xml"/>
        <edge-files value="matrix.edg.xml"/>
        <connection-files value="matrix.con.xml"/>
        <tllogic-files value="matrix.tll.xml"/>
    </input>

    <output>
        <output-file value="matrix.net.xml"/>
    </output>

    <report>
        <log value="matrix.net.log"/>
    </report>

</configuration>
-->

<net version="0.13" xmlns:xsi="http://www.w3.org/2001/XMLSchema-instance" xsi:noNamespaceSchemaLocation="http://sumo.dlr.de/xsd/net_file.xsd">

    <location netOffset="-465.86,0.00" convBoundary="0.00,0.00,16741.76,13044.02" origBoundary="0.00,0.00,538.65,480.42" projParameter="!"/>

    <edge id=":0/26_0" function="internal">
        <lane id=":0/26_0_0" index="0" speed="20.00" length="4.82" shape="246.42,11414.77 246.01,11413.35 246.23,11412.45 247.07,11412.09 248.55,11412.25"/>
    </edge>
    <edge id=":10/10_0" function="internal">
        <lane id=":10/10_0_0" index="0" speed="20.00" length="7.40" shape="2967.51,7461.80 2966.74,7460.70 2965.37,7460.03 2963.41,7459.78 2960.86,7459.96"/>
    </edge>
    <edge id=":10/10_1" function="internal">
        <lane id=":10/10_1_0" index="0" speed="20.00" length="16.51" shape="2970.61,7460.67 2968.93,7456.07 2967.76,7452.92 2966.57,7449.79 2964.82,7445.21"/>
    </edge>
    <edge id=":10/10_2" function="internal">
        <lane id=":10/10_2_0" index="0" speed="20.00" length="16.63" shape="2970.98,7442.85 2972.75,7447.46 2973.95,7450.61 2975.12,7453.78 2976.82,7458.41"/>
    </edge>
    <edge id=":10/10_3" function="internal">
        <lane id=":10/10_3_0" index="0" speed="20.00" length="9.37" shape="2967.90,7444.03 2969.02,7448.96 2968.14,7452.72 2967.80,7453.02"/>
    </edge>
    <edge id=":10/10_6" function="internal">
        <lane id=":10/10_6_0" index="0" speed="20.00" length="8.46" shape="2967.80,7453.02 2965.27,7455.29 2960.41,7456.69"/>
    </edge>
    <edge id=":10/10_4" function="internal">
        <lane id=":10/10_4_0" index="0" speed="20.00" length="5.30" shape="2959.51,7450.15 2960.95,7449.74 2961.81,7448.97 2962.07,7447.86 2961.73,7446.39"/>
    </edge>
    <edge id=":10/10_5" function="internal">
        <lane id=":10/10_5_0" index="0" speed="20.00" length="8.31" shape="2959.96,7453.42 2964.94,7453.24 2968.17,7454.02"/>
    </edge>
    <edge id=":10/10_7" function="internal">
        <lane id=":10/10_7_0" index="0" speed="20.00" length="8.10" shape="2968.17,7454.02 2968.89,7454.19 2971.81,7456.30 2973.71,7459.54"/>
    </edge>
    <edge id=":10/12_0" function="internal">
        <lane id=":10/12_0_0" index="0" speed="20.00" length="15.27" shape="3095.67,7775.74 3091.73,7777.79 3089.44,7779.94 3087.21,7782.22 3083.43,7784.66"/>
    </edge>
    <edge id=":10/12_1" function="internal">
        <lane id=":10/12_1_0" index="0" speed="20.00" length="8.77" shape="3094.50,7772.66 3090.28,7773.60 3086.78,7772.96 3086.09,7772.40"/>
    </edge>
    <edge id=":10/12_6" function="internal">
        <lane id=":10/12_6_0" index="0" speed="20.00" length="6.99" shape="3086.09,7772.40 3084.02,7770.73 3081.97,7766.91"/>
    </edge>
    <edge id=":10/12_2" function="internal">
        <lane id=":10/12_2_0" index="0" speed="20.00" length="5.02" shape="3088.18,7764.66 3088.83,7765.87 3089.71,7766.58 3090.82,7766.79 3092.16,7766.49"/>
    </edge>
    <edge id=":10/12_3" function="internal">
        <lane id=":10/12_3_0" index="0" speed="20.00" length="6.63" shape="3085.08,7765.79 3086.54,7771.34 3086.53,7772.22"/>
    </edge>
    <edge id=":10/12_7" function="internal">
        <lane id=":10/12_7_0" index="0" speed="20.00" length="11.27" shape="3086.53,7772.22 3086.51,7775.84 3084.98,7779.30 3081.96,7781.71"/>
    </edge>
    <edge id=":10/12_4" function="internal">
        <lane id=":10/12_4_0" index="0" speed="20.00" length="5.55" shape="3077.53,7772.85 3078.60,7772.06 3079.17,7771.00 3079.27,7769.66 3078.87,7768.04"/>
    </edge>
    <edge id=":10/12_5" function="internal">
        <lane id=":10/12_5_0" index="0" speed="20.00" length="15.64" shape="3079.01,7775.81 3083.17,7773.75 3086.05,7772.42 3089.00,7771.22 3093.33,7769.57"/>
    </edge>
    <edge id=":10/14_0" function="internal">
        <lane id=":10/14_0_0" index="0" speed="20.00" length="5.85" shape="4023.08,8359.92 4017.25,8360.34"/>
    </edge>
    <edge id=":10/14_1" function="internal">
        <lane id=":10/14_1_0" index="0" speed="20.00" length="10.64" shape="4011.82,8356.59 4013.66,8354.06 4015.22,8352.52 4017.16,8351.49 4020.12,8350.48"/>
    </edge>
    <edge id=":10/16_0" function="internal">
        <lane id=":10/16_0_0" index="0" speed="20.00" length="5.19" shape="3758.20,8744.95 3757.10,8744.00 3756.00,8743.69 3754.91,8744.01 3753.81,8744.96"/>
    </edge>
    <edge id=":10/16_1" function="internal">
        <lane id=":10/16_1_0" index="0" speed="20.00" length="7.76" shape="3760.69,8742.79 3758.00,8738.95 3756.98,8736.06"/>
    </edge>
    <edge id=":10/16_6" function="internal">
        <lane id=":10/16_6_0" index="0" speed="20.00" length="7.96" shape="3756.98,8736.06 3756.71,8735.29 3756.83,8731.80 3758.37,8728.48"/>
    </edge>
    <edge id=":10/16_2" function="internal">
        <lane id=":10/16_2_0" index="0" speed="20.00" length="6.97" shape="3763.79,8732.24 3763.33,8733.47 3763.48,8734.92 3764.27,8736.59 3765.68,8738.47"/>
    </edge>
    <edge id=":10/16_3" function="internal">
        <lane id=":10/16_3_0" index="0" speed="20.00" length="15.84" shape="3761.08,8730.36 3758.38,8734.21 3756.44,8736.77 3754.38,8739.25 3751.31,8742.82"/>
    </edge>
    <edge id=":10/16_4" function="internal">
        <lane id=":10/16_4_0" index="0" speed="20.00" length="15.16" shape="3746.30,8738.52 3749.23,8735.11 3751.21,8732.74 3753.07,8730.28 3755.65,8726.60"/>
    </edge>
    <edge id=":10/16_5" function="internal">
        <lane id=":10/16_5_0" index="0" speed="20.00" length="9.09" shape="3748.80,8740.67 3752.39,8737.53 3755.98,8736.48 3756.54,8736.64"/>
    </edge>
    <edge id=":10/16_7" function="internal">
        <lane id=":10/16_7_0" index="0" speed="20.00" length="7.93" shape="3756.54,8736.64 3759.58,8737.51 3763.18,8740.63"/>
    </edge>
    <edge id=":10/18_0" function="internal">
        <lane id=":10/18_0_0" index="0" speed="20.00" length="15.82" shape="3615.37,9293.36 3610.80,9293.62 3607.78,9294.81 3604.75,9296.22 3600.19,9297.17"/>
    </edge>
    <edge id=":10/18_1" function="internal">
        <lane id=":10/18_1_0" index="0" speed="20.00" length="7.45" shape="3615.60,9290.06 3612.54,9289.20 3609.62,9287.04 3609.22,9286.54"/>
    </edge>
    <edge id=":10/18_6" function="internal">
        <lane id=":10/18_6_0" index="0" speed="20.00" length="9.19" shape="3609.22,9286.54 3606.86,9283.59 3604.25,9278.85"/>
    </edge>
    <edge id=":10/18_2" function="internal">
        <lane id=":10/18_2_0" index="0" speed="20.00" length="9.73" shape="3610.22,9276.04 3611.87,9279.23 3613.39,9281.53 3614.80,9282.95 3616.07,9283.48"/>
    </edge>
    <edge id=":10/18_3" function="internal">
        <lane id=":10/18_3_0" index="0" speed="20.00" length="9.46" shape="3607.24,9277.45 3609.47,9284.18 3609.24,9286.54"/>
    </edge>
    <edge id=":10/18_7" function="internal">
        <lane id=":10/18_7_0" index="0" speed="20.00" length="13.25" shape="3609.24,9286.54 3608.99,9289.17 3605.81,9292.40 3599.92,9293.88"/>
    </edge>
    <edge id=":10/18_4" function="internal">
        <lane id=":10/18_4_0" index="0" speed="20.00" length="5.50" shape="3599.09,9284.01 3600.65,9283.66 3601.53,9282.92 3601.74,9281.78 3601.26,9280.26"/>
    </edge>
    <edge id=":10/18_5" function="internal">
        <lane id=":10/18_5_0" index="0" speed="20.00" length="16.51" shape="3599.37,9287.30 3604.25,9286.85 3607.60,9286.56 3610.95,9286.51 3615.84,9286.77"/>
    </edge>
    <edge id=":10/8_0" function="internal">
        <lane id=":10/8_0_0" index="0" speed="20.00" length="5.72" shape="2444.13,6094.87 2443.34,6093.31 2442.36,6092.30 2441.21,6091.85 2439.88,6091.95"/>
    </edge>
    <edge id=":10/8_1" function="internal">
        <lane id=":10/8_1_0" index="0" speed="20.00" length="7.21" shape="2447.21,6093.69 2446.23,6089.36 2446.75,6086.64"/>
    </edge>
    <edge id=":10/8_6" function="internal">
        <lane id=":10/8_6_0" index="0" speed="20.00" length="8.88" shape="2446.75,6086.64 2446.90,6085.81 2449.23,6083.06 2453.21,6081.09"/>
    </edge>
    <edge id=":10/8_2" function="internal">
        <lane id=":10/8_2_0" index="0" speed="20.00" length="5.06" shape="2455.26,6087.37 2454.01,6087.98 2453.28,6088.85 2453.07,6089.96 2453.37,6091.33"/>
    </edge>
    <edge id=":10/8_3" function="internal">
        <lane id=":10/8_3_0" index="0" speed="20.00" length="15.87" shape="2454.24,6084.23 2449.76,6085.69 2446.68,6086.66 2443.58,6087.54 2439.03,6088.77"/>
    </edge>
    <edge id=":10/8_4" function="internal">
        <lane id=":10/8_4_0" index="0" speed="20.00" length="15.50" shape="2437.33,6082.39 2441.78,6081.19 2444.80,6080.33 2447.81,6079.38 2452.18,6077.96"/>
    </edge>
    <edge id=":10/8_5" function="internal">
        <lane id=":10/8_5_0" index="0" speed="20.00" length="8.43" shape="2438.18,6085.58 2442.16,6085.15 2445.50,6086.17 2446.20,6086.79"/>
    </edge>
    <edge id=":10/8_7" function="internal">
        <lane id=":10/8_7_0" index="0" speed="20.00" length="7.13" shape="2446.20,6086.79 2448.21,6088.62 2450.29,6092.51"/>
    </edge>
    <edge id=":12/16_0" function="internal">
        <lane id=":12/16_0_0" index="0" speed="20.00" length="10.43" shape="3941.83,8961.43 3941.23,8958.40 3940.65,8956.32 3939.62,8954.46 3937.70,8952.08"/>
    </edge>
    <edge id=":12/16_1" function="internal">
        <lane id=":12/16_1_0" index="0" speed="20.00" length="8.19" shape="3945.07,8960.79 3944.83,8956.81 3945.88,8953.59 3946.45,8952.99"/>
    </edge>
    <edge id=":12/16_6" function="internal">
        <lane id=":12/16_6_0" index="0" speed="20.00" length="6.55" shape="3946.45,8952.99 3948.21,8951.13 3951.81,8949.43"/>
    </edge>
    <edge id=":12/16_2" function="internal">
        <lane id=":12/16_2_0" index="0" speed="20.00" length="4.88" shape="3953.77,8955.73 3952.58,8956.30 3951.81,8957.11 3951.46,8958.17 3951.54,8959.49"/>
    </edge>
    <edge id=":12/16_3" function="internal">
        <lane id=":12/16_3_0" index="0" speed="20.00" length="6.29" shape="3952.79,8952.58 3948.97,8953.36 3946.58,8953.23"/>
    </edge>
    <edge id=":12/16_7" function="internal">
        <lane id=":12/16_7_0" index="0" speed="20.00" length="7.38" shape="3946.58,8953.23 3945.59,8953.17 3942.67,8952.03 3940.20,8949.91"/>
    </edge>
    <edge id=":12/16_4" function="internal">
        <lane id=":12/16_4_0" index="0" speed="20.00" length="6.01" shape="3945.19,8945.59 3946.16,8946.36 3947.43,8946.73 3948.99,8946.70 3950.83,8946.28"/>
    </edge>
    <edge id=":12/16_5" function="internal">
        <lane id=":12/16_5_0" index="0" speed="20.00" length="13.87" shape="3942.69,8947.75 3945.26,8950.92 3946.67,8953.37 3947.49,8956.11 3948.30,8960.14"/>
    </edge>
    <edge id=":12/18_0" function="internal">
        <lane id=":12/18_0_0" index="0" speed="20.00" length="16.59" shape="4024.14,9322.55 4019.23,9322.20 4015.87,9321.96 4012.51,9321.72 4007.60,9321.37"/>
    </edge>
    <edge id=":12/18_1" function="internal">
        <lane id=":12/18_1_0" index="0" speed="20.00" length="7.95" shape="4024.38,9319.26 4020.86,9318.33 4018.03,9316.07 4017.67,9315.48"/>
    </edge>
    <edge id=":12/18_6" function="internal">
        <lane id=":12/18_6_0" index="0" speed="20.00" length="8.61" shape="4017.67,9315.48 4015.88,9312.48 4014.42,9307.58"/>
    </edge>
    <edge id=":12/18_2" function="internal">
        <lane id=":12/18_2_0" index="0" speed="20.00" length="7.97" shape="4020.90,9306.28 4021.61,9309.01 4022.51,9310.98 4023.59,9312.21 4024.85,9312.68"/>
    </edge>
    <edge id=":12/18_3" function="internal">
        <lane id=":12/18_3_0" index="0" speed="20.00" length="8.76" shape="4017.66,9306.93 4017.95,9312.14 4016.55,9315.40"/>
    </edge>
    <edge id=":12/18_7" function="internal">
        <lane id=":12/18_7_0" index="0" speed="20.00" length="9.49" shape="4016.55,9315.40 4016.41,9315.73 4013.03,9317.71 4007.83,9318.08"/>
    </edge>
    <edge id=":12/18_4" function="internal">
        <lane id=":12/18_4_0" index="0" speed="20.00" length="5.36" shape="4008.30,9311.50 4009.83,9311.39 4010.82,9310.81 4011.27,9309.75 4011.19,9308.22"/>
    </edge>
    <edge id=":12/18_5" function="internal">
        <lane id=":12/18_5_0" index="0" speed="20.00" length="16.59" shape="4008.07,9314.79 4012.98,9315.14 4016.34,9315.38 4019.70,9315.62 4024.61,9315.97"/>
    </edge>
    <edge id=":14/12_0" function="internal">
        <lane id=":14/12_0_0" index="0" speed="20.00" length="14.71" shape="3939.44,7456.61 3935.21,7457.69 3932.33,7458.51 3929.50,7459.48 3925.41,7461.01"/>
    </edge>
    <edge id=":14/12_1" function="internal">
        <lane id=":14/12_1_0" index="0" speed="20.00" length="9.81" shape="3938.62,7453.41 3934.43,7453.65 3930.93,7452.07 3929.81,7450.70"/>
    </edge>
    <edge id=":14/12_6" function="internal">
        <lane id=":14/12_6_0" index="0" speed="20.00" length="8.28" shape="3929.81,7450.70 3928.14,7448.66 3926.05,7443.42"/>
    </edge>
    <edge id=":14/12_2" function="internal">
        <lane id=":14/12_2_0" index="0" speed="20.00" length="4.97" shape="3932.40,7441.62 3932.95,7442.86 3933.76,7443.64 3934.85,7443.96 3936.19,7443.81"/>
    </edge>
    <edge id=":14/12_3" function="internal">
        <lane id=":14/12_3_0" index="0" speed="20.00" length="8.20" shape="3929.22,7442.52 3930.21,7448.06 3929.92,7450.62"/>
    </edge>
    <edge id=":14/12_7" function="internal">
        <lane id=":14/12_7_0" index="0" speed="20.00" length="9.80" shape="3929.92,7450.62 3929.70,7452.48 3927.72,7455.77 3924.24,7457.93"/>
    </edge>
    <edge id=":14/12_4" function="internal">
        <lane id=":14/12_4_0" index="0" speed="20.00" length="8.13" shape="3921.90,7451.76 3923.00,7450.90 3923.53,7449.37 3923.49,7447.18 3922.87,7444.32"/>
    </edge>
    <edge id=":14/12_5" function="internal">
        <lane id=":14/12_5_0" index="0" speed="20.00" length="16.10" shape="3923.07,7454.84 3927.31,7452.70 3929.94,7450.60 3932.61,7448.67 3937.00,7447.01"/>
    </edge>
    <edge id=":14/18_0" function="internal">
        <lane id=":14/18_0_0" index="0" speed="20.00" length="5.29" shape="4420.70,9354.32 4420.51,9352.80 4419.95,9351.69 4419.02,9350.97 4417.72,9350.67"/>
    </edge>
    <edge id=":14/18_1" function="internal">
        <lane id=":14/18_1_0" index="0" speed="20.00" length="6.62" shape="4424.00,9354.32 4424.60,9348.63 4424.97,9347.82"/>
    </edge>
    <edge id=":14/18_6" function="internal">
        <lane id=":14/18_6_0" index="0" speed="20.00" length="11.77" shape="4424.97,9347.82 4426.42,9344.57 4429.45,9342.13 4433.70,9341.32"/>
    </edge>
    <edge id=":14/18_2" function="internal">
        <lane id=":14/18_2_0" index="0" speed="20.00" length="5.00" shape="4433.70,9351.22 4432.34,9351.41 4431.37,9352.00 4430.79,9352.96 4430.60,9354.32"/>
    </edge>
    <edge id=":14/18_3" function="internal">
        <lane id=":14/18_3_0" index="0" speed="20.00" length="15.76" shape="4433.70,9347.92 4429.02,9347.91 4425.82,9347.86 4422.62,9347.70 4417.95,9347.38"/>
    </edge>
    <edge id=":14/18_4" function="internal">
        <lane id=":14/18_4_0" index="0" speed="20.00" length="15.65" shape="4418.42,9340.79 4422.98,9340.59 4426.05,9339.61 4429.13,9338.53 4433.70,9338.02"/>
    </edge>
    <edge id=":14/18_5" function="internal">
        <lane id=":14/18_5_0" index="0" speed="20.00" length="8.56" shape="4418.19,9344.08 4422.17,9344.97 4425.02,9346.97 4425.50,9347.84"/>
    </edge>
    <edge id=":14/18_7" function="internal">
        <lane id=":14/18_7_0" index="0" speed="20.00" length="6.83" shape="4425.50,9347.84 4426.73,9350.09 4427.30,9354.32"/>
    </edge>
    <edge id=":14/24_0" function="internal">
        <lane id=":14/24_0_0" index="0" speed="20.00" length="16.58" shape="4437.69,9958.42 4433.36,9960.60 4430.76,9962.79 4428.21,9965.09 4424.00,9967.58"/>
    </edge>
    <edge id=":14/24_1" function="internal">
        <lane id=":14/24_1_0" index="0" speed="20.00" length="9.84" shape="4436.52,9955.33 4431.04,9956.58 4427.13,9955.56 4427.02,9955.42"/>
    </edge>
    <edge id=":14/24_6" function="internal">
        <lane id=":14/24_6_0" index="0" speed="20.00" length="9.48" shape="4427.02,9955.42 4424.78,9952.27 4424.00,9946.70"/>
    </edge>
    <edge id=":14/24_2" function="internal">
        <lane id=":14/24_2_0" index="0" speed="20.00" length="5.51" shape="4430.60,9946.70 4430.82,9948.29 4431.49,9949.23 4432.61,9949.52 4434.17,9949.17"/>
    </edge>
    <edge id=":14/24_3" function="internal">
        <lane id=":14/24_3_0" index="0" speed="20.00" length="8.88" shape="4427.30,9946.70 4427.00,9953.71 4426.70,9955.55"/>
    </edge>
    <edge id=":14/24_7" function="internal">
        <lane id=":14/24_7_0" index="0" speed="20.00" length="10.26" shape="4426.70,9955.55 4426.12,9959.02 4424.66,9962.65 4422.60,9964.59"/>
    </edge>
    <edge id=":14/24_4" function="internal">
        <lane id=":14/24_4_0" index="0" speed="20.00" length="9.52" shape="4418.42,9955.62 4419.41,9954.66 4420.13,9952.86 4420.56,9950.21 4420.70,9946.70"/>
    </edge>
    <edge id=":14/24_5" function="internal">
        <lane id=":14/24_5_0" index="0" speed="20.00" length="16.79" shape="4419.81,9958.61 4424.34,9956.54 4427.49,9955.22 4430.68,9954.00 4435.34,9952.25"/>
    </edge>
    <edge id=":14/8_0" function="internal">
        <lane id=":14/8_0_0" index="0" speed="20.00" length="11.76" shape="3205.75,5847.03 3203.50,5845.57 3200.90,5844.85 3197.93,5844.88 3194.61,5845.66"/>
    </edge>
    <edge id=":14/8_1" function="internal">
        <lane id=":14/8_1_0" index="0" speed="20.00" length="7.59" shape="3207.94,5844.56 3204.00,5840.21 3203.31,5838.63"/>
    </edge>
    <edge id=":14/8_6" function="internal">
        <lane id=":14/8_6_0" index="0" speed="20.00" length="11.29" shape="3203.31,5838.63 3202.20,5836.06 3202.55,5832.10 3205.05,5828.33"/>
    </edge>
    <edge id=":14/8_2" function="internal">
        <lane id=":14/8_2_0" index="0" speed="20.00" length="5.06" shape="3212.15,5835.23 3211.33,5836.36 3211.08,5837.47 3211.41,5838.55 3212.31,5839.62"/>
    </edge>
    <edge id=":14/8_3" function="internal">
        <lane id=":14/8_3_0" index="0" speed="20.00" length="19.16" shape="3209.78,5832.93 3205.74,5836.87 3202.58,5839.16 3198.96,5840.74 3193.58,5842.52"/>
    </edge>
    <edge id=":14/8_4" function="internal">
        <lane id=":14/8_4_0" index="0" speed="20.00" length="15.46" shape="3191.53,5836.25 3195.56,5834.42 3197.82,5832.29 3199.72,5829.59 3202.68,5826.04"/>
    </edge>
    <edge id=":14/8_5" function="internal">
        <lane id=":14/8_5_0" index="0" speed="20.00" length="10.91" shape="3192.56,5839.38 3197.63,5838.25 3202.25,5838.33 3203.29,5838.65"/>
    </edge>
    <edge id=":14/8_7" function="internal">
        <lane id=":14/8_7_0" index="0" speed="20.00" length="7.73" shape="3203.29,5838.65 3206.41,5839.60 3210.12,5842.09"/>
    </edge>
    <edge id=":16/24_0" function="internal">
        <lane id=":16/24_0_0" index="0" speed="20.00" length="5.85" shape="5034.21,9733.05 5033.50,9730.95 5032.72,9729.56 5031.86,9728.87 5030.92,9728.89"/>
    </edge>
    <edge id=":16/24_1" function="internal">
        <lane id=":16/24_1_0" index="0" speed="20.00" length="17.11" shape="5028.57,9722.73 5032.61,9722.01 5035.95,9723.21 5038.61,9726.31 5040.58,9731.31"/>
    </edge>
    <edge id=":16/28_0" function="internal">
        <lane id=":16/28_0_0" index="0" speed="20.00" length="16.33" shape="5132.79,10048.51 5128.21,10049.91 5125.32,10051.63 5122.43,10053.38 5117.87,10054.87"/>
    </edge>
    <edge id=":16/28_1" function="internal">
        <lane id=":16/28_1_0" index="0" speed="20.00" length="8.53" shape="5132.17,10045.26 5128.10,10045.41 5124.82,10044.13 5124.18,10043.45"/>
    </edge>
    <edge id=":16/28_6" function="internal">
        <lane id=":16/28_6_0" index="0" speed="20.00" length="7.17" shape="5124.18,10043.45 5122.33,10041.45 5120.62,10037.34"/>
    </edge>
    <edge id=":16/28_2" function="internal">
        <lane id=":16/28_2_0" index="0" speed="20.00" length="5.66" shape="5126.99,10035.61 5127.62,10037.20 5128.48,10038.27 5129.59,10038.79 5130.93,10038.78"/>
    </edge>
    <edge id=":16/28_3" function="internal">
        <lane id=":16/28_3_0" index="0" speed="20.00" length="6.99" shape="5123.80,10036.47 5124.72,10042.31 5124.53,10043.38"/>
    </edge>
    <edge id=":16/28_7" function="internal">
        <lane id=":16/28_7_0" index="0" speed="20.00" length="12.03" shape="5124.53,10043.38 5123.93,10046.78 5121.42,10049.89 5117.19,10051.64"/>
    </edge>
    <edge id=":16/28_4" function="internal">
        <lane id=":16/28_4_0" index="0" speed="20.00" length="5.07" shape="5115.15,10041.95 5116.47,10041.47 5117.29,10040.69 5117.61,10039.60 5117.44,10038.21"/>
    </edge>
    <edge id=":16/28_5" function="internal">
        <lane id=":16/28_5_0" index="0" speed="20.00" length="16.04" shape="5115.83,10045.18 5120.49,10044.20 5123.68,10043.55 5126.87,10042.92 5131.55,10042.02"/>
    </edge>
    <edge id=":18/12_0" function="internal">
        <lane id=":18/12_0_0" index="0" speed="20.00" length="7.27" shape="5017.72,7189.33 5016.79,7186.99 5015.71,7185.43 5014.48,7184.63 5013.10,7184.61"/>
    </edge>
    <edge id=":18/12_1" function="internal">
        <lane id=":18/12_1_0" index="0" speed="20.00" length="24.44" shape="5020.87,7188.34 5018.74,7181.41 5017.42,7176.62 5016.32,7171.78 5014.82,7164.68"/>
    </edge>
    <edge id=":18/12_2" function="internal">
        <lane id=":18/12_2_0" index="0" speed="20.00" length="7.65" shape="5024.02,7187.35 5022.89,7180.71 5023.07,7179.81"/>
    </edge>
    <edge id=":18/12_12" function="internal">
        <lane id=":18/12_12_0" index="0" speed="20.00" length="17.19" shape="5023.07,7179.81 5024.02,7175.09 5027.39,7170.49 5033.01,7166.90"/>
    </edge>
    <edge id=":18/12_3" function="internal">
        <lane id=":18/12_3_0" index="0" speed="20.00" length="8.02" shape="5038.48,7178.91 5035.96,7180.26 5034.28,7181.62 5033.45,7183.00 5033.46,7184.38"/>
    </edge>
    <edge id=":18/12_4" function="internal">
        <lane id=":18/12_4_0" index="0" speed="20.00" length="25.55" shape="5037.12,7175.91 5029.72,7178.65 5024.00,7179.72 5018.63,7180.26 5012.29,7181.42"/>
    </edge>
    <edge id=":18/12_5" function="internal">
        <lane id=":18/12_5_0" index="0" speed="20.00" length="8.79" shape="5035.75,7172.91 5027.88,7175.38 5027.34,7175.33"/>
    </edge>
    <edge id=":18/12_13" function="internal">
        <lane id=":18/12_13_0" index="0" speed="20.00" length="18.30" shape="5027.34,7175.33 5021.78,7174.83 5017.42,7171.27 5014.82,7164.68"/>
    </edge>
    <edge id=":18/12_6" function="internal">
        <lane id=":18/12_6_0" index="0" speed="20.00" length="5.28" shape="5027.73,7161.93 5028.25,7163.34 5029.07,7164.13 5030.20,7164.32 5031.64,7163.90"/>
    </edge>
    <edge id=":18/12_7" function="internal">
        <lane id=":18/12_7_0" index="0" speed="20.00" length="23.50" shape="5024.50,7162.62 5025.95,7169.44 5027.00,7174.10 5028.26,7178.71 5030.32,7185.37"/>
    </edge>
    <edge id=":18/12_8" function="internal">
        <lane id=":18/12_8_0" index="0" speed="20.00" length="8.70" shape="5021.28,7163.30 5021.91,7170.07 5021.46,7171.92"/>
    </edge>
    <edge id=":18/12_14" function="internal">
        <lane id=":18/12_14_0" index="0" speed="20.00" length="14.10" shape="5021.46,7171.92 5020.63,7175.35 5017.42,7179.13 5012.29,7181.42"/>
    </edge>
    <edge id=":18/12_9" function="internal">
        <lane id=":18/12_9_0" index="0" speed="20.00" length="7.37" shape="5009.86,7171.82 5011.07,7171.14 5011.77,7169.83 5011.94,7167.91 5011.59,7165.36"/>
    </edge>
    <edge id=":18/12_10" function="internal">
        <lane id=":18/12_10_0" index="0" speed="20.00" length="23.82" shape="5010.67,7175.02 5017.50,7173.21 5022.10,7171.71 5026.58,7169.84 5033.01,7166.90"/>
    </edge>
    <edge id=":18/12_11" function="internal">
        <lane id=":18/12_11_0" index="0" speed="20.00" length="6.20" shape="5011.48,7178.22 5017.62,7177.32"/>
    </edge>
    <edge id=":18/12_15" function="internal">
        <lane id=":18/12_15_0" index="0" speed="20.00" length="16.35" shape="5017.62,7177.32 5018.42,7177.21 5023.87,7178.06 5027.83,7180.78 5030.32,7185.37"/>
    </edge>
    <edge id=":18/14_0" function="internal">
        <lane id=":18/14_0_0" index="0" speed="20.00" length="23.40" shape="5284.88,7965.61 5279.12,7968.73 5274.47,7972.40 5270.91,7976.64 5268.44,7981.43"/>
    </edge>
    <edge id=":18/14_1" function="internal">
        <lane id=":18/14_1_0" index="0" speed="20.00" length="32.38" shape="5283.52,7962.60 5274.20,7966.03 5266.32,7967.77 5259.22,7968.93 5252.23,7970.57"/>
    </edge>
    <edge id=":18/14_2" function="internal">
        <lane id=":18/14_2_0" index="0" speed="20.00" length="10.47" shape="5282.17,7959.60 5274.80,7961.90 5272.05,7961.73"/>
    </edge>
    <edge id=":18/14_12" function="internal">
        <lane id=":18/14_12_0" index="0" speed="20.00" length="14.99" shape="5272.05,7961.73 5268.91,7961.53 5264.48,7958.47 5261.51,7952.74"/>
    </edge>
    <edge id=":18/14_3" function="internal">
        <lane id=":18/14_3_0" index="0" speed="20.00" length="5.15" shape="5274.11,7948.77 5274.73,7950.07 5275.60,7950.80 5276.73,7950.96 5278.11,7950.57"/>
    </edge>
    <edge id=":18/14_4" function="internal">
        <lane id=":18/14_4_0" index="0" speed="20.00" length="31.94" shape="5270.96,7949.76 5272.48,7959.25 5271.17,7966.87 5268.35,7973.56 5265.35,7980.26"/>
    </edge>
    <edge id=":18/14_5" function="internal">
        <lane id=":18/14_5_0" index="0" speed="20.00" length="7.90" shape="5267.81,7950.76 5268.44,7957.09 5267.82,7958.50"/>
    </edge>
    <edge id=":18/14_13" function="internal">
        <lane id=":18/14_13_0" index="0" speed="20.00" length="20.55" shape="5267.82,7958.50 5266.05,7962.50 5260.65,7966.99 5252.23,7970.57"/>
    </edge>
    <edge id=":18/14_6" function="internal">
        <lane id=":18/14_6_0" index="0" speed="20.00" length="12.74" shape="5249.26,7961.12 5253.73,7959.44 5256.74,7957.64 5258.29,7955.74 5258.37,7953.73"/>
    </edge>
    <edge id=":18/14_7" function="internal">
        <lane id=":18/14_7_0" index="0" speed="20.00" length="31.14" shape="5250.25,7964.27 5258.93,7961.57 5265.09,7959.55 5271.14,7957.21 5279.46,7953.58"/>
    </edge>
    <edge id=":18/14_8" function="internal">
        <lane id=":18/14_8_0" index="0" speed="20.00" length="12.18" shape="5251.24,7967.42 5260.19,7965.69 5263.13,7966.55"/>
    </edge>
    <edge id=":18/14_14" function="internal">
        <lane id=":18/14_14_0" index="0" speed="20.00" length="16.02" shape="5263.13,7966.55 5265.53,7967.25 5267.25,7972.11 5265.35,7980.26"/>
    </edge>
    <edge id=":18/14_9" function="internal">
        <lane id=":18/14_9_0" index="0" speed="20.00" length="6.21" shape="5256.09,7976.76 5256.55,7974.89 5256.22,7973.76 5255.11,7973.37 5253.22,7973.72"/>
    </edge>
    <edge id=":18/14_10" function="internal">
        <lane id=":18/14_10_0" index="0" speed="20.00" length="26.15" shape="5259.18,7977.93 5261.97,7970.70 5263.45,7965.42 5263.38,7960.10 5261.51,7952.74"/>
    </edge>
    <edge id=":18/14_11" function="internal">
        <lane id=":18/14_11_0" index="0" speed="20.00" length="12.71" shape="5262.27,7979.10 5266.38,7969.47 5267.49,7967.51"/>
    </edge>
    <edge id=":18/14_15" function="internal">
        <lane id=":18/14_15_0" index="0" speed="20.00" length="18.67" shape="5267.49,7967.51 5270.61,7962.00 5274.97,7956.71 5279.46,7953.58"/>
    </edge>
    <edge id=":18/16_0" function="internal">
        <lane id=":18/16_0_0" index="0" speed="20.00" length="5.32" shape="5018.18,8628.51 5017.87,8627.02 5017.17,8626.12 5016.08,8625.78 5014.58,8626.02"/>
    </edge>
    <edge id=":18/16_1" function="internal">
        <lane id=":18/16_1_0" index="0" speed="20.00" length="22.30" shape="5021.47,8628.31 5020.72,8622.11 5019.94,8617.44 5020.01,8612.71 5021.78,8606.35"/>
    </edge>
    <edge id=":18/16_2" function="internal">
        <lane id=":18/16_2_0" index="0" speed="20.00" length="18.18" shape="5031.04,8609.85 5029.68,8614.91 5029.81,8618.57 5030.64,8622.34 5031.35,8627.71"/>
    </edge>
    <edge id=":18/16_3" function="internal">
        <lane id=":18/16_3_0" index="0" speed="20.00" length="13.31" shape="5027.95,8608.69 5025.49,8613.70 5022.28,8617.74 5020.25,8619.30"/>
    </edge>
    <edge id=":18/16_6" function="internal">
        <lane id=":18/16_6_0" index="0" speed="20.00" length="7.59" shape="5020.25,8619.30 5018.32,8620.80 5013.60,8622.87"/>
    </edge>
    <edge id=":18/16_4" function="internal">
        <lane id=":18/16_4_0" index="0" speed="20.00" length="13.64" shape="5011.65,8616.57 5013.25,8615.49 5014.96,8613.24 5016.77,8609.80 5018.69,8605.19"/>
    </edge>
    <edge id=":18/16_5" function="internal">
        <lane id=":18/16_5_0" index="0" speed="20.00" length="7.67" shape="5012.62,8619.72 5019.09,8618.52 5020.16,8618.74"/>
    </edge>
    <edge id=":18/16_7" function="internal">