<?xml version="1.0" encoding="UTF-8" standalone="no"?>
<routes>
  <vType accel="2.60" color="0.0,0.50,0.00" decel="4.50" id="vType0" length="2.50" maxSpeed="15.00" minGap="2.50" sigma=".50"/>

  <!--
  <flow begin="0" end="600" id="flow_0_0" probability="0.06" type="vType0">
    <route edges="20/18to20/14 20/14to18/14 18/14to10/14"/>
  </flow>
  <flow begin="0" end="600" id="flow_0_1" probability="0.06" type="vType0">
    <route edges="22/14to20/14 20/14to18/14 18/14to10/14"/>
  </flow>
  <flow begin="0" end="600" id="flow_0_2" probability="0.06" type="vType0">
    <route edges="20/12to20/14 20/14to18/14 18/14to10/14"/>
  </flow>
  -->

</routes>
